<?xml version="1.0" encoding="UTF-8"?>

<!-- generated on 2026-06-29 00:20:11 by Eclipse SUMO netedit-CBSGM Version 3984794750
-->

<routes xmlns:xsi="http://www.w3.org/2001/XMLSchema-instance" xsi:noNamespaceSchemaLocation="http://sumo.dlr.de/xsd/routes_file.xsd">
    <!-- VTypes -->
    <vType id="DEFAULT_BUSTYPE" vClass="bus"/>
    <vType id="DEFAULT_COMMTYPE" vClass="delivery"/>
    <!-- Vehicles, persons and containers (sorted by depart) -->
    <flow id="b_0" type="DEFAULT_BUSTYPE" begin="0.00" from="-97087715#0" to="-528941529#0" via="-528941513#4 -528941513#1 -701604657#6 -701604657#5 -E30 528941523#4 528941523#5 528941523#6 BKapi EfsaneKokorec -528941519#0 701604651 528941537#0 528941537#2 701604657#6 -528941529#2" end="1800.00" vehsPerHour="300"/>
    <flow id="c_0" type="DEFAULT_COMMTYPE" begin="0.00" from="E28" to="-1106301518#0" via="528941529#2 528941529#3 528941505#0 528941505#1 -528941508#2 -E29 -528941530#0 -528941532#0 528941525#1 -E31 528941525#4 528941525#6 1105900478" end="1800.00" vehsPerHour="200"/>
    <flow id="c_1" type="DEFAULT_COMMTYPE" begin="0.00" from="701604653" to="-701598818" via="-528941504#0 -528941522#5 -528941522#4 -528941509#0 528941530#5 -528941511#1 528941502#1 528941502#2 528941501#0 -528941527#2" end="1800.00" vehsPerHour="200"/>
    <flow id="f_0" begin="0.00" from="-1106301522#0" to="1106301520#2" via="-97087715#2 CarsimAVM Isik_Bufe E6 E3 903732622#0 -E8 903732622#6 903732622#7 -1106301515#1 -1106301516" end="1800.00" vehsPerHour="250"/>
    <flow id="f_1" begin="0.00" from="-E10" to="528941526#1" via="-528941524#0 -528941547#8 -1106301518#1 E27 528941522#1 528941522#3 CarsimAVM EfsaneKokorec 701604652 528941521#0 -528941536#2 -528941536#0 528941538 -528941535#0 528941526#0" end="1800.00" vehsPerHour="300"/>
    <flow id="t_0" type="DEFAULT_TAXITYPE" begin="0.00" from="-528941521#1" to="-528941521#2" via="528941518#1 SeverseDoner -528941522#6 -528941522#3 -528941522#2 -528941511#5 528941530#6 -528941513#0 -528941503 528941547#7 528941547#8 528941547#9 528941547#10 528941547#11 528941524#0 528941524#2 -528941525#0 -528941527#0 -528941537#4 -528941537#2 -701604655 -701604651" end="1800.00" vehsPerHour="200"/>
    <flow id="t_1" type="DEFAULT_TAXITYPE" begin="0.00" from="-E18" to="-E4" via="97087740#2 97087740#3 E1 -E0 97087740#9 97087740#10 1106301525#0 E25 -1105900478 528941529#6 528941547#6 528941503 -528941525#5 -528941525#4 E31 -528941525#1 -528941524#2 E10 701604654#1 528941499#0 528941520" end="1800.00" vehsPerHour="200"/>
</routes>
