<?xml version="1.0" encoding="UTF-8"?>

<!-- generated on 2026-05-29 15:15:00 by Eclipse SUMO netedit-CBSGM Version 3984794750
<configuration xmlns:xsi="http://www.w3.org/2001/XMLSchema-instance" xsi:noNamespaceSchemaLocation="http://sumo.dlr.de/xsd/netedit-CBSGMConfiguration.xsd">

    <input>
        <sumocfg-file value="C:\Users\omer\Desktop\Masaustum\Projelerim\3.sinif_1.donem+2.donem_PROJE-1\SUMO-Netedit\Kirikkale_Yenisehir_Proje-1\2\Yenisehir_Proje-1-2.sumocfg"/>
        <additional-files value="C:\Users\omer\Desktop\Masaustum\Projelerim\3.sinif_1.donem+2.donem_PROJE-1\SUMO-Netedit\Kirikkale_Yenisehir_Proje-1\2\Yenisehir_Proje-1-2-Ekler.add.xml"/>
        <route-files value="C:\Users\omer\Desktop\Masaustum\Projelerim\3.sinif_1.donem+2.donem_PROJE-1\SUMO-Netedit\Kirikkale_Yenisehir_Proje-1\2\Yenisehir_Proje-1-2-Rota.rou.xml"/>
        <sumo-net-file value="C:\Users\omer\Desktop\Masaustum\Projelerim\3.sinif_1.donem+2.donem_PROJE-1\SUMO-Netedit\Kirikkale_Yenisehir_Proje-1\Yenisehir_Proje-1-2.net.xml"/>
    </input>

    <output>
        <edgetypes-file value="C:\Users\omer\Desktop\Masaustum\Projelerim\3.sinif_1.donem+2.donem_PROJE-1\SUMO-Netedit\Kirikkale_Yenisehir_Proje-1\2\Yenisehir_Proje-1-2.typ.xml"/>
        <output.street-names value="true"/>
    </output>

    <processing>
        <geometry.min-radius.fix.railways value="false"/>
        <geometry.max-grade.fix value="false"/>
        <offset.disable-normalization value="true"/>
        <lefthand value="0"/>
    </processing>

    <junctions>
        <no-internal-links value="false"/>
        <no-turnarounds value="true"/>
        <junctions.corner-detail value="5"/>
        <junctions.limit-turn-speed value="5.50"/>
        <rectangular-lane-cut value="0"/>
    </junctions>

    <pedestrian>
        <walkingareas value="1"/>
    </pedestrian>

</configuration>
-->

<edges version="1.16" xmlns:xsi="http://www.w3.org/2001/XMLSchema-instance" xsi:noNamespaceSchemaLocation="http://sumo.dlr.de/xsd/edges_file.xsd">
    <location netOffset="-537548.15,-4411994.95" convBoundary="1146.19,0.00,3037.77,2062.04" origBoundary="33.439150,39.857101,33.474525,39.887464" projParameter="+proj=utm +zone=36 +ellps=WGS84 +datum=WGS84 +units=m +no_defs"/>

    <edge id="-1105900478" from="10119704925" to="5139072825" priority="3" type="highway.residential" numLanes="1" speed="13.89" disallow="pedestrian tram rail_urban rail rail_electric rail_fast ship">
        <lane index="0">
            <param key="origId" value="1105900478"/>
        </lane>
    </edge>
    <edge id="-1105900479#0" from="10123562110" to="5139072977" priority="3" type="highway.residential" numLanes="1" speed="13.89" shape="2225.95,1836.98 2167.17,1842.03 2129.80,1840.45" disallow="pedestrian tram rail_urban rail rail_electric rail_fast ship">
        <lane index="0">
            <param key="origId" value="1105900479"/>
        </lane>
    </edge>
    <edge id="-1105900479#1" from="10123562111" to="10123562110" priority="3" type="highway.residential" numLanes="1" speed="13.89" disallow="pedestrian tram rail_urban rail rail_electric rail_fast ship">
        <lane index="0">
            <param key="origId" value="1105900479"/>
        </lane>
    </edge>
    <edge id="-1105900479#2" from="10123562106" to="10123562111" priority="3" type="highway.residential" numLanes="1" speed="13.89" shape="2336.19,1812.90 2297.60,1827.12 2248.02,1835.09 2239.02,1835.87" disallow="pedestrian tram rail_urban rail rail_electric rail_fast ship">
        <lane index="0">
            <param key="origId" value="1105900479"/>
        </lane>
    </edge>
    <edge id="-1105900479#3" from="10119704929" to="10123562106" priority="3" type="highway.residential" numLanes="1" speed="13.89" disallow="pedestrian tram rail_urban rail rail_electric rail_fast ship">
        <lane index="0">
            <param key="origId" value="1105900479"/>
        </lane>
    </edge>
    <edge id="-1105900480#0" from="10119704929" to="5139072972" priority="3" type="highway.residential" numLanes="1" speed="13.89" shape="2444.99,1772.79 2413.45,1690.98 2390.65,1647.15 2347.09,1585.03 2317.37,1542.35" disallow="pedestrian tram rail_urban rail rail_electric rail_fast ship">
        <lane index="0">
            <param key="origId" value="1105900480"/>
        </lane>
    </edge>
    <edge id="-1105900480#1" from="10119704951" to="10119704929" priority="3" type="highway.residential" numLanes="1" speed="13.89" disallow="pedestrian tram rail_urban rail rail_electric rail_fast ship">
        <lane index="0">
            <param key="origId" value="1105900480"/>
        </lane>
    </edge>
    <edge id="-1105900480#2" from="10119704933" to="10119704951" priority="3" type="highway.residential" numLanes="1" speed="13.89" disallow="pedestrian tram rail_urban rail rail_electric rail_fast ship">
        <lane index="0">
            <param key="origId" value="1105900480"/>
        </lane>
    </edge>
    <edge id="-1105900484" from="10119704929" to="10119704949" priority="3" type="highway.residential" numLanes="1" speed="13.89" disallow="pedestrian tram rail_urban rail rail_electric rail_fast ship">
        <lane index="0">
            <param key="origId" value="1105900484"/>
        </lane>
    </edge>
    <edge id="-1105900485" from="10119704951" to="10119704950" priority="3" type="highway.residential" numLanes="1" speed="13.89" disallow="pedestrian tram rail_urban rail rail_electric rail_fast ship">
        <lane index="0">
            <param key="origId" value="1105900485"/>
        </lane>
    </edge>
    <edge id="-1105900487" from="cluster_5139072616_6588911164" to="5139072611" priority="3" type="highway.residential" numLanes="1" speed="13.89" shape="1976.38,856.69 1950.01,869.55 1934.90,875.71 1912.44,875.87 1881.86,874.77" disallow="pedestrian tram rail_urban rail rail_electric rail_fast ship">
        <lane index="0">
            <param key="origId" value="1105900487"/>
        </lane>
        <param key="origFrom" value="6588911164"/>
    </edge>
    <edge id="-1106301514#0" from="10123562115" to="10119704951" priority="3" type="highway.residential" numLanes="1" speed="13.89" shape="2248.93,1902.71 2344.01,1878.27 2423.20,1848.91 2467.97,1832.38" disallow="pedestrian tram rail_urban rail rail_electric rail_fast ship">
        <lane index="0">
            <param key="origId" value="1106301514"/>
        </lane>
    </edge>
    <edge id="-1106301514#1" from="cluster_10123562128_5139072976" to="10123562115" priority="3" type="highway.residential" numLanes="1" speed="13.89" shape="2129.63,1916.53 2248.93,1902.71" disallow="pedestrian tram rail_urban rail rail_electric rail_fast ship">
        <lane index="0">
            <param key="origId" value="1106301514"/>
        </lane>
        <param key="origFrom" value="5139072976"/>
    </edge>
    <edge id="-1106301515#0" from="10123562112" to="cluster_10123562116_5139072975" priority="3" type="highway.residential" numLanes="1" speed="13.89" shape="2257.20,1958.57 2211.70,1968.12 2136.69,1977.91" disallow="pedestrian tram rail_urban rail rail_electric rail_fast ship">
        <lane index="0">
            <param key="origId" value="1106301515"/>
        </lane>
        <param key="origTo" value="10123562116"/>
    </edge>
    <edge id="-1106301515#1" from="10119704933" to="10123562112" priority="3" type="highway.residential" numLanes="1" speed="13.89" shape="2487.18,1882.21 2335.49,1943.08 2257.20,1958.57" disallow="pedestrian tram rail_urban rail rail_electric rail_fast ship">
        <lane index="0">
            <param key="origId" value="1106301515"/>
        </lane>
    </edge>
    <edge id="-1106301515#2" from="10123562119" to="10119704933" priority="3" type="highway.residential" numLanes="1" speed="13.89" disallow="pedestrian tram rail_urban rail rail_electric rail_fast ship">
        <lane index="0">
            <param key="origId" value="1106301515"/>
        </lane>
    </edge>
    <edge id="-1106301516" from="cluster_10123562116_5139072975" to="10123562120" priority="3" type="highway.residential" numLanes="1" speed="13.89" shape="2139.29,2000.42 2074.26,2004.29 1978.62,2005.56 1927.40,2013.45 1878.38,2030.01" disallow="pedestrian tram rail_urban rail rail_electric rail_fast ship">
        <lane index="0">
            <param key="origId" value="1106301516"/>
        </lane>
        <param key="origFrom" value="5139072975"/>
    </edge>
    <edge id="-1106301518#0" from="10119704925" to="10123562129" priority="3" type="highway.residential" numLanes="1" speed="13.89" shape="1903.94,1806.55 1833.10,1825.66 1745.86,1854.25" disallow="pedestrian tram rail_urban rail rail_electric rail_fast ship">
        <lane index="0">
            <param key="origId" value="1106301518"/>
        </lane>
    </edge>
    <edge id="-1106301518#1" from="5139072977" to="10119704925" priority="3" type="highway.residential" numLanes="1" speed="13.89" shape="2129.80,1840.45 2091.45,1841.16 2009.05,1828.33 1938.74,1813.11 1903.94,1806.55" disallow="pedestrian tram rail_urban rail rail_electric rail_fast ship">
        <lane index="0">
            <param key="origId" value="1106301518"/>
        </lane>
    </edge>
    <edge id="-1106301519#2" from="10123562137" to="10123562129" priority="3" type="highway.residential" numLanes="1" speed="13.89" disallow="pedestrian tram rail_urban rail rail_electric rail_fast ship">
        <lane index="0">
            <param key="origId" value="1106301519"/>
        </lane>
    </edge>
    <edge id="-1106301520#2" from="10123562140" to="10123562150" priority="3" type="highway.residential" numLanes="1" speed="13.89" disallow="pedestrian tram rail_urban rail rail_electric rail_fast ship">
        <lane index="0">
            <param key="origId" value="1106301520"/>
        </lane>
    </edge>
    <edge id="-1106301522#0" from="10123562140" to="1124809830" priority="3" type="highway.residential" numLanes="1" speed="13.89" shape="1651.94,2062.04 1607.96,2033.05 1588.21,2022.64 1572.49,2018.01" disallow="pedestrian tram rail_urban rail rail_electric rail_fast ship">
        <lane index="0">
            <param key="origId" value="1106301522"/>
        </lane>
    </edge>
    <edge id="-1106301524#0" from="10123562150" to="cluster_10123562149_10123562170" priority="3" type="highway.residential" numLanes="1" speed="13.89" shape="1711.79,2002.00 1630.69,1900.80" disallow="pedestrian tram rail_urban rail rail_electric rail_fast ship">
        <lane index="0">
            <param key="origId" value="1106301524"/>
        </lane>
        <param key="origTo" value="10123562149"/>
    </edge>
    <edge id="-1106301525#0" from="cluster_10123562149_10123562170" to="10123562154" priority="3" type="highway.residential" numLanes="1" speed="13.89" shape="1630.69,1900.80 1613.58,1904.55 1585.73,1904.70 1559.68,1904.26" disallow="pedestrian tram rail_urban rail rail_electric rail_fast ship">
        <lane index="0">
            <param key="origId" value="1106301525"/>
        </lane>
        <param key="origFrom" value="10123562149"/>
    </edge>
    <edge id="-1106301530#0" from="cluster_10123562177_10123562179" to="5139072979" priority="3" type="highway.residential" numLanes="1" speed="13.89" shape="2242.72,1362.64 2216.20,1367.24 2173.04,1374.80" disallow="pedestrian tram rail_urban rail rail_electric rail_fast ship">
        <lane index="0">
            <param key="origId" value="1106301530"/>
        </lane>
        <param key="origFrom" value="10123562177"/>
    </edge>
    <edge id="-1106301530#2" from="10123562172" to="cluster_10123562177_10123562179" priority="3" type="highway.residential" numLanes="1" speed="13.89" shape="2312.58,1350.53 2252.67,1360.92" disallow="pedestrian tram rail_urban rail rail_electric rail_fast ship">
        <lane index="0">
            <param key="origId" value="1106301530"/>
        </lane>
        <param key="origTo" value="10123562179"/>
    </edge>
    <edge id="-1106301530#3" from="10123562174" to="10123562172" priority="3" type="highway.residential" numLanes="1" speed="13.89" shape="2391.88,1343.46 2361.07,1344.63 2312.58,1350.53" disallow="pedestrian tram rail_urban rail rail_electric rail_fast ship">
        <lane index="0">
            <param key="origId" value="1106301530"/>
        </lane>
    </edge>
    <edge id="-1106301531#0" from="10123562178" to="10123562175" priority="3" type="highway.residential" numLanes="1" speed="13.89" disallow="pedestrian tram rail_urban rail rail_electric rail_fast ship">
        <lane index="0">
            <param key="origId" value="1106301531"/>
        </lane>
    </edge>
    <edge id="-1106301531#1" from="10123562176" to="10123562178" priority="3" type="highway.residential" numLanes="1" speed="13.89" disallow="pedestrian tram rail_urban rail rail_electric rail_fast ship">
        <lane index="0">
            <param key="origId" value="1106301531"/>
        </lane>
    </edge>
    <edge id="-1106301532" from="10123562178" to="cluster_10123562177_10123562179" priority="3" type="highway.residential" numLanes="1" speed="13.89" shape="2254.90,1433.15 2242.72,1362.64" disallow="pedestrian tram rail_urban rail rail_electric rail_fast ship">
        <lane index="0">
            <param key="origId" value="1106301532"/>
        </lane>
        <param key="origTo" value="10123562177"/>
    </edge>
    <edge id="-1106301533" from="10123562180" to="cluster_10123562177_10123562179" priority="3" type="highway.residential" numLanes="1" speed="13.89" shape="2237.47,1254.85 2252.67,1360.92" disallow="pedestrian tram rail_urban rail rail_electric rail_fast ship">
        <lane index="0">
            <param key="origId" value="1106301533"/>
        </lane>
        <param key="origTo" value="10123562179"/>
    </edge>
    <edge id="-1106301534#0" from="10123562180" to="5139072980" priority="3" type="highway.residential" numLanes="1" speed="13.89" disallow="pedestrian tram rail_urban rail rail_electric rail_fast ship">
        <lane index="0">
            <param key="origId" value="1106301534"/>
        </lane>
    </edge>
    <edge id="-1106301534#1" from="10123562184" to="10123562180" priority="3" type="highway.residential" numLanes="1" speed="13.89" disallow="pedestrian tram rail_urban rail rail_electric rail_fast ship">
        <lane index="0">
            <param key="origId" value="1106301534"/>
        </lane>
    </edge>
    <edge id="-1106301534#2" from="10123562183" to="10123562184" priority="3" type="highway.residential" numLanes="1" speed="13.89" disallow="pedestrian tram rail_urban rail rail_electric rail_fast ship">
        <lane index="0">
            <param key="origId" value="1106301534"/>
        </lane>
    </edge>
    <edge id="-1106301534#3" from="10123562182" to="10123562183" priority="3" type="highway.residential" numLanes="1" speed="13.89" shape="2348.12,1234.75 2308.11,1242.14 2293.74,1244.72" disallow="pedestrian tram rail_urban rail rail_electric rail_fast ship">
        <lane index="0">
            <param key="origId" value="1106301534"/>
        </lane>
    </edge>
    <edge id="-1106301535" from="10123562172" to="10123562183" priority="3" type="highway.residential" numLanes="1" speed="13.89" disallow="pedestrian tram rail_urban rail rail_electric rail_fast ship">
        <lane index="0">
            <param key="origId" value="1106301535"/>
        </lane>
    </edge>
    <edge id="-1106301536" from="10123562185" to="10123562184" priority="3" type="highway.residential" numLanes="1" speed="13.89" disallow="pedestrian tram rail_urban rail rail_electric rail_fast ship">
        <lane index="0">
            <param key="origId" value="1106301536"/>
        </lane>
    </edge>
    <edge id="-1106301537#0" from="10123562185" to="10123562187" priority="3" type="highway.residential" numLanes="1" speed="13.89" shape="2254.43,1140.54 2219.75,1144.78 2204.28,1144.47" disallow="pedestrian tram rail_urban rail rail_electric rail_fast ship">
        <lane index="0">
            <param key="origId" value="1106301537"/>
        </lane>
    </edge>
    <edge id="-1106301537#1" from="10123562189" to="10123562185" priority="3" type="highway.residential" numLanes="1" speed="13.89" disallow="pedestrian tram rail_urban rail rail_electric rail_fast ship">
        <lane index="0">
            <param key="origId" value="1106301537"/>
        </lane>
    </edge>
    <edge id="-528941499#0" from="5139072608" to="5139072838" priority="3" type="highway.residential" numLanes="1" speed="13.89" disallow="pedestrian tram rail_urban rail rail_electric rail_fast ship">
        <lane index="0">
            <param key="origId" value="528941499"/>
        </lane>
        <param key="origFrom" value="5139072608"/>
    </edge>
    <edge id="-528941500#2" from="5139072614" to="cluster_5139072616_6588911164" priority="3" type="highway.residential" numLanes="1" speed="13.89" shape="1942.18,904.04 1950.39,890.27 1961.39,870.55 1976.38,856.69" disallow="pedestrian tram rail_urban rail rail_electric rail_fast ship">
        <lane index="0">
            <param key="origId" value="528941500"/>
        </lane>
        <param key="origTo" value="6588911164"/>
    </edge>
    <edge id="-528941500#3" from="5139072611" to="5139072614" priority="3" type="highway.residential" numLanes="1" speed="13.89" shape="1881.86,874.77 1895.30,876.84 1918.63,887.94 1942.18,904.04" disallow="pedestrian tram rail_urban rail rail_electric rail_fast ship">
        <lane index="0">
            <param key="origId" value="528941500"/>
        </lane>
    </edge>
    <edge id="-528941501#0" from="5139072694" to="5139072622" priority="3" type="highway.residential" numLanes="1" speed="13.89" disallow="pedestrian tram rail_urban rail rail_electric rail_fast ship">
        <lane index="0">
            <param key="origId" value="528941501"/>
        </lane>
    </edge>
    <edge id="-528941502#0" from="5139072626" to="5139072627" priority="3" type="highway.residential" numLanes="1" speed="13.89" disallow="pedestrian tram rail_urban rail rail_electric rail_fast ship">
        <lane index="0">
            <param key="origId" value="528941502"/>
        </lane>
    </edge>
    <edge id="-528941502#1" from="5139072625" to="5139072626" priority="3" type="highway.residential" numLanes="1" speed="13.89" disallow="pedestrian tram rail_urban rail rail_electric rail_fast ship">
        <lane index="0">
            <param key="origId" value="528941502"/>
        </lane>
    </edge>
    <edge id="-528941502#2" from="5139072686" to="5139072625" priority="3" type="highway.residential" numLanes="1" speed="13.89" shape="2092.74,1197.36 2094.55,1206.22 2097.90,1224.06 2100.44,1282.26" disallow="pedestrian tram rail_urban rail rail_electric rail_fast ship">
        <lane index="0">
            <param key="origId" value="528941502"/>
        </lane>
    </edge>
    <edge id="-528941503" from="5139072653" to="5139072629" priority="3" type="highway.residential" numLanes="1" speed="13.89" shape="1989.06,1577.05 2044.74,1566.51 2160.91,1561.00" disallow="pedestrian tram rail_urban rail rail_electric rail_fast ship">
        <lane index="0">
            <param key="origId" value="528941503"/>
        </lane>
    </edge>
    <edge id="-528941504#0" from="5139072670" to="5139072635" priority="3" type="highway.residential" numLanes="1" speed="13.89" shape="1583.18,1258.19 1580.30,1281.49 1561.45,1335.32 1573.37,1365.97" disallow="pedestrian tram rail_urban rail rail_electric rail_fast ship">
        <lane index="0">
            <param key="origId" value="528941504"/>
        </lane>
    </edge>
    <edge id="-528941504#1" from="5139072715" to="5139072670" priority="3" type="highway.residential" numLanes="1" speed="13.89" shape="1631.72,1207.84 1588.19,1243.94 1585.11,1250.26 1583.18,1258.19" disallow="pedestrian tram rail_urban rail rail_electric rail_fast ship">
        <lane index="0">
            <param key="origId" value="528941504"/>
        </lane>
    </edge>
    <edge id="-528941505#0" from="5139072654" to="5139072636" priority="3" type="highway.residential" numLanes="1" speed="13.89" disallow="pedestrian tram rail_urban rail rail_electric rail_fast ship">
        <lane index="0">
            <param key="origId" value="528941505"/>
        </lane>
    </edge>
    <edge id="-528941505#1" from="5139072651" to="5139072654" priority="3" type="highway.residential" numLanes="1" speed="13.89" shape="1801.01,1545.15 1810.56,1605.48 1811.00,1608.26" disallow="pedestrian tram rail_urban rail rail_electric rail_fast ship">
        <lane index="0">
            <param key="origId" value="528941505"/>
        </lane>
    </edge>
    <edge id="-528941507#0" from="5139072640" to="5139072641" priority="3" type="highway.residential" numLanes="1" speed="13.89" disallow="pedestrian tram rail_urban rail rail_electric rail_fast ship">
        <lane index="0">
            <param key="origId" value="528941507"/>
        </lane>
    </edge>
    <edge id="-528941507#1" from="5139072828" to="5139072640" priority="3" type="highway.residential" numLanes="1" speed="13.89" disallow="pedestrian tram rail_urban rail rail_electric rail_fast ship">
        <lane index="0">
            <param key="origId" value="528941507"/>
        </lane>
    </edge>
    <edge id="-528941508#2" from="5139072651" to="5139072640" priority="3" type="highway.residential" numLanes="1" speed="13.89" disallow="pedestrian tram rail_urban rail rail_electric rail_fast ship">
        <lane index="0">
            <param key="origId" value="528941508"/>
        </lane>
    </edge>
    <edge id="-528941509#0" from="5139072644" to="5139072645" priority="3" type="highway.residential" numLanes="1" speed="13.89" disallow="pedestrian tram rail_urban rail rail_electric rail_fast ship">
        <lane index="0">
            <param key="origId" value="528941509"/>
        </lane>
    </edge>
    <edge id="-528941509#1" from="cluster_5139072643_5139072852" to="5139072644" priority="3" type="highway.residential" numLanes="1" speed="13.89" shape="1462.01,1544.41 1573.91,1501.88" disallow="pedestrian tram rail_urban rail rail_electric rail_fast ship">
        <lane index="0">
            <param key="origId" value="528941509"/>
        </lane>
        <param key="origFrom" value="5139072643"/>
    </edge>
    <edge id="-528941510#0" from="5139072647" to="1124809887" priority="3" type="highway.residential" numLanes="1" speed="13.89" disallow="pedestrian tram rail_urban rail rail_electric rail_fast ship">
        <lane index="0">
            <param key="origId" value="528941510"/>
        </lane>
    </edge>
    <edge id="-528941510#1" from="5139072646" to="5139072647" priority="3" type="highway.residential" numLanes="1" speed="13.89" disallow="pedestrian tram rail_urban rail rail_electric rail_fast ship">
        <lane index="0">
            <param key="origId" value="528941510"/>
        </lane>
    </edge>
    <edge id="-528941511#0" from="5139072627" to="5139072652" priority="3" type="highway.residential" numLanes="1" speed="13.89" disallow="pedestrian tram rail_urban rail rail_electric rail_fast ship">
        <lane index="0">
            <param key="origId" value="528941511"/>
        </lane>
    </edge>
    <edge id="-528941511#1" from="5139072687" to="5139072627" priority="3" type="highway.residential" numLanes="1" speed="13.89" disallow="pedestrian tram rail_urban rail rail_electric rail_fast ship">
        <lane index="0">
            <param key="origId" value="528941511"/>
        </lane>
    </edge>
    <edge id="-528941511#2" from="5139072827" to="5139072687" priority="3" type="highway.residential" numLanes="1" speed="13.89" shape="1866.43,1535.67 1946.01,1525.52 1981.89,1520.95" disallow="pedestrian tram rail_urban rail rail_electric rail_fast ship">
        <lane index="0">
            <param key="origId" value="528941511"/>
        </lane>
    </edge>
    <edge id="-528941511#3" from="5139072651" to="5139072827" priority="3" type="highway.residential" numLanes="1" speed="13.89" shape="1801.01,1545.15 1806.12,1544.46 1866.43,1535.67" disallow="pedestrian tram rail_urban rail rail_electric rail_fast ship">
        <lane index="0">
            <param key="origId" value="528941511"/>
        </lane>
    </edge>
    <edge id="-528941511#4" from="5139072650" to="5139072651" priority="3" type="highway.residential" numLanes="1" speed="13.89" disallow="pedestrian tram rail_urban rail rail_electric rail_fast ship">
        <lane index="0">
            <param key="origId" value="528941511"/>
        </lane>
    </edge>
    <edge id="-528941511#5" from="5139072649" to="5139072650" priority="3" type="highway.residential" numLanes="1" speed="13.89" disallow="pedestrian tram rail_urban rail rail_electric rail_fast ship">
        <lane index="0">
            <param key="origId" value="528941511"/>
        </lane>
    </edge>
    <edge id="-528941511#6" from="5139072648" to="5139072649" priority="3" type="highway.residential" numLanes="1" speed="13.89" disallow="pedestrian tram rail_urban rail rail_electric rail_fast ship">
        <lane index="0">
            <param key="origId" value="528941511"/>
        </lane>
    </edge>
    <edge id="-528941512#0" from="5139072688" to="5139072828" priority="3" type="highway.residential" numLanes="1" speed="13.89" disallow="pedestrian tram rail_urban rail rail_electric rail_fast ship">
        <lane index="0">
            <param key="origId" value="528941512"/>
        </lane>
    </edge>
    <edge id="-528941512#1" from="5139072626" to="5139072688" priority="3" type="highway.residential" numLanes="1" speed="13.89" disallow="pedestrian tram rail_urban rail rail_electric rail_fast ship">
        <lane index="0">
            <param key="origId" value="528941512"/>
        </lane>
    </edge>
    <edge id="-528941512#2" from="5139072979" to="5139072626" priority="3" type="highway.residential" numLanes="1" speed="13.89" disallow="pedestrian tram rail_urban rail rail_electric rail_fast ship">
        <lane index="0">
            <param key="origId" value="528941512"/>
        </lane>
    </edge>
    <edge id="-528941513#0" from="5139072826" to="5139072653" priority="3" type="highway.residential" numLanes="1" speed="13.89" disallow="pedestrian tram rail_urban rail rail_electric rail_fast ship">
        <lane index="0">
            <param key="origId" value="528941513"/>
        </lane>
    </edge>
    <edge id="-528941513#1" from="5139072654" to="5139072826" priority="3" type="highway.residential" numLanes="1" speed="13.89" disallow="pedestrian tram rail_urban rail rail_electric rail_fast ship">
        <lane index="0">
            <param key="origId" value="528941513"/>
        </lane>
    </edge>
    <edge id="-528941513#2" from="5139072700" to="5139072654" priority="3" type="highway.residential" numLanes="1" speed="13.89" disallow="pedestrian tram rail_urban rail rail_electric rail_fast ship">
        <lane index="0">
            <param key="origId" value="528941513"/>
        </lane>
    </edge>
    <edge id="-528941513#3" from="5139072656" to="5139072700" priority="3" type="highway.residential" numLanes="1" speed="13.89" disallow="pedestrian tram rail_urban rail rail_electric rail_fast ship">
        <lane index="0">
            <param key="origId" value="528941513"/>
        </lane>
    </edge>
    <edge id="-528941513#4" from="1124809896" to="5139072656" priority="3" type="highway.residential" numLanes="1" speed="13.89" shape="1522.39,1699.31 1535.74,1696.87 1641.54,1653.51" disallow="pedestrian tram rail_urban rail rail_electric rail_fast ship">
        <lane index="0">
            <param key="origId" value="528941513"/>
        </lane>
    </edge>
    <edge id="-528941515#0" from="5139072635" to="5139072702" priority="3" type="highway.residential" numLanes="1" speed="13.89" disallow="pedestrian tram rail_urban rail rail_electric rail_fast ship">
        <lane index="0">
            <param key="origId" value="528941515"/>
        </lane>
    </edge>
    <edge id="-528941515#1" from="5139072669" to="5139072635" priority="3" type="highway.residential" numLanes="1" speed="13.89" disallow="pedestrian tram rail_urban rail rail_electric rail_fast ship">
        <lane index="0">
            <param key="origId" value="528941515"/>
        </lane>
    </edge>
    <edge id="-528941515#2" from="cluster_10119705105_10119705107_1124809771" to="5139072669" priority="3" type="highway.residential" numLanes="1" speed="13.89" shape="1415.64,1424.98 1520.00,1388.41" disallow="pedestrian tram rail_urban rail rail_electric rail_fast ship">
        <lane index="0">
            <param key="origId" value="528941515"/>
        </lane>
        <param key="origFrom" value="1124809771"/>
    </edge>
    <edge id="-528941516" from="5139072682" to="5139072823" priority="3" type="highway.residential" numLanes="1" speed="13.89" disallow="pedestrian tram rail_urban rail rail_electric rail_fast ship">
        <lane index="0">
            <param key="origId" value="528941516"/>
        </lane>
    </edge>
    <edge id="-528941517" from="5139072670" to="5139072823" priority="3" type="highway.residential" numLanes="1" speed="13.89" disallow="pedestrian tram rail_urban rail rail_electric rail_fast ship">
        <lane index="0">
            <param key="origId" value="528941517"/>
        </lane>
    </edge>
    <edge id="-528941518#1" from="5139072823" to="5139072671" priority="3" type="highway.residential" numLanes="1" speed="13.89" disallow="pedestrian tram rail_urban rail rail_electric rail_fast ship">
        <lane index="0">