<?xml version="1.0" encoding="UTF-8"?>

<!-- generated on 2026-06-19 08:28:17 by Eclipse SUMO netedit-CBSGM Version 3984794750
<configuration xmlns:xsi="http://www.w3.org/2001/XMLSchema-instance" xsi:noNamespaceSchemaLocation="http://sumo.dlr.de/xsd/netedit-CBSGMConfiguration.xsd">

    <input>
        <sumocfg-file value="C:\Users\omer\Desktop\Masaustum\Projelerim\3.sinif_1.donem+2.donem_PROJE-1\SUMO-Netedit\Kirikkale_Yenisehir_Proje-1\Yenisehir_Proje-1-2.sumocfg"/>
        <additional-files value="C:\Users\omer\Desktop\Masaustum\Projelerim\3.sinif_1.donem+2.donem_PROJE-1\SUMO-Netedit\Kirikkale_Yenisehir_Proje-1\Yenisehir_Proje-1-2.add.xml"/>
        <route-files value="C:\Users\omer\Desktop\Masaustum\Projelerim\3.sinif_1.donem+2.donem_PROJE-1\SUMO-Netedit\Kirikkale_Yenisehir_Proje-1\Yenisehir_Proje-1-2_Rota.rou.xml"/>
        <sumo-net-file value="C:\Users\omer\Desktop\Masaustum\Projelerim\3.sinif_1.donem+2.donem_PROJE-1\SUMO-Netedit\Kirikkale_Yenisehir_Proje-1\Yenisehir_Proje-1-2.net.xml"/>
    </input>

    <output>
        <tls-file value="C:\Users\omer\Desktop\Masaustum\Projelerim\3.sinif_1.donem+2.donem_PROJE-1\SUMO-Netedit\Kirikkale_Yenisehir_Proje-1\Yenisehir_Proje-1-2.tll.xml"/>
        <edgetypes-file value="C:\Users\omer\Desktop\Masaustum\Projelerim\3.sinif_1.donem+2.donem_PROJE-1\SUMO-Netedit\Kirikkale_Yenisehir_Proje-1\Yenisehir_Proje-1-2.typ.xml"/>
        <output-file value="C:\Users\omer\Desktop\Masaustum\Projelerim\3.sinif_1.donem+2.donem_PROJE-1\SUMO-Netedit\Kirikkale_Yenisehir_Proje-1\Yenisehir_Proje-1-2.net.xml"/>
        <output.street-names value="true"/>
    </output>

    <processing>
        <geometry.min-radius.fix.railways value="false"/>
        <geometry.max-grade.fix value="false"/>
        <offset.disable-normalization value="true"/>
        <lefthand value="0"/>
    </processing>

    <junctions>
        <no-internal-links value="false"/>
        <no-turnarounds value="true"/>
        <junctions.corner-detail value="5"/>
        <junctions.limit-turn-speed value="5.50"/>
        <rectangular-lane-cut value="0"/>
    </junctions>

    <pedestrian>
        <walkingareas value="1"/>
    </pedestrian>

</configuration>
-->

<net version="1.16" junctionCornerDetail="5" walkingareas="true" limitTurnSpeed="5.50" xmlns:xsi="http://www.w3.org/2001/XMLSchema-instance" xsi:noNamespaceSchemaLocation="http://sumo.dlr.de/xsd/net_file.xsd">

    <location netOffset="-537548.15,-4411994.95" convBoundary="1146.19,0.00,3037.77,2062.04" origBoundary="33.439150,39.857101,33.474525,39.887464" projParameter="+proj=utm +zone=36 +ellps=WGS84 +datum=WGS84 +units=m +no_defs"/>

    <type id="highway.residential" priority="3" numLanes="2" speed="13.89" disallow="pedestrian tram rail_urban rail rail_electric rail_fast ship" oneway="0" sidewalkWidth="2.00"/>
    <type id="highway.tertiary" priority="10" numLanes="2" speed="13.89" disallow="pedestrian tram rail_urban rail rail_electric rail_fast ship" oneway="0" sidewalkWidth="3.00"/>
    <type id="highway.unclassified" priority="4" numLanes="2" speed="13.89" disallow="pedestrian tram rail_urban rail rail_electric rail_fast ship" oneway="0" sidewalkWidth="2.00"/>

    <edge id=":10119704925_0" function="internal">
        <lane id=":10119704925_0_0" index="0" disallow="pedestrian tram rail_urban rail rail_electric rail_fast ship" speed="13.89" length="11.43" shape="1909.39,1809.21 1906.23,1808.72 1903.72,1808.66 1901.23,1809.01 1898.12,1809.78"/>
    </edge>
    <edge id=":10119704925_1" function="internal">
        <lane id=":10119704925_1_0" index="0" disallow="pedestrian tram rail_urban rail rail_electric rail_fast ship" speed="8.78" length="3.39" shape="1909.39,1809.21 1906.32,1808.17 1906.20,1808.08"/>
    </edge>
    <edge id=":10119704925_2" function="internal">
        <lane id=":10119704925_2_0" index="0" disallow="pedestrian tram rail_urban rail rail_electric rail_fast ship" speed="3.65" length="1.44" shape="1909.39,1809.21 1908.36,1808.20"/>
    </edge>
    <edge id=":10119704925_9" function="internal">
        <lane id=":10119704925_9_0" index="0" disallow="pedestrian tram rail_urban rail rail_electric rail_fast ship" speed="8.78" length="9.39" shape="1906.20,1808.08 1903.95,1806.36 1902.30,1803.78 1901.36,1800.42"/>
    </edge>
    <edge id=":10119704925_10" function="internal">
        <lane id=":10119704925_10_0" index="0" disallow="pedestrian tram rail_urban rail rail_electric rail_fast ship" speed="3.65" length="3.23" shape="1908.36,1808.20 1908.11,1807.34 1908.66,1806.62 1909.98,1806.06"/>
    </edge>
    <edge id=":10119704925_3" function="internal">
        <lane id=":10119704925_3_0" index="0" disallow="pedestrian tram rail_urban rail rail_electric rail_fast ship" speed="7.38" length="8.82" shape="1904.52,1799.92 1905.17,1802.28 1906.30,1804.09 1907.90,1805.35 1909.98,1806.06"/>
    </edge>
    <edge id=":10119704925_4" function="internal">
        <lane id=":10119704925_4_0" index="0" disallow="pedestrian tram rail_urban rail rail_electric rail_fast ship" speed="8.03" length="13.11" shape="1904.52,1799.92 1904.58,1803.46 1903.53,1806.28 1901.38,1808.39 1898.12,1809.78"/>
    </edge>
    <edge id=":10119704925_5" function="internal">
        <lane id=":10119704925_5_0" index="0" disallow="pedestrian tram rail_urban rail rail_electric rail_fast ship" speed="3.65" length="4.67" shape="1904.52,1799.92 1903.92,1801.23 1903.19,1801.75 1902.34,1801.48 1901.36,1800.42"/>
    </edge>
    <edge id=":10119704925_6" function="internal">
        <lane id=":10119704925_6_0" index="0" disallow="pedestrian tram rail_urban rail rail_electric rail_fast ship" speed="6.53" length="8.34" shape="1897.29,1806.69 1899.36,1805.80 1900.73,1804.47 1901.40,1802.67 1901.36,1800.42"/>
    </edge>
    <edge id=":10119704925_7" function="internal">
        <lane id=":10119704925_7_0" index="0" disallow="pedestrian tram rail_urban rail rail_electric rail_fast ship" speed="13.89" length="12.84" shape="1897.29,1806.69 1900.62,1805.91 1903.60,1805.54 1906.60,1805.58 1909.98,1806.06"/>
    </edge>
    <edge id=":10119704925_8" function="internal">
        <lane id=":10119704925_8_0" index="0" disallow="pedestrian tram rail_urban rail rail_electric rail_fast ship" speed="3.65" length="1.44" shape="1897.29,1806.69 1898.65,1807.15"/>
    </edge>
    <edge id=":10119704925_11" function="internal">
        <lane id=":10119704925_11_0" index="0" disallow="pedestrian tram rail_urban rail rail_electric rail_fast ship" speed="3.65" length="3.23" shape="1898.65,1807.15 1899.25,1807.82 1899.07,1808.69 1898.12,1809.78"/>
    </edge>
    <edge id=":10119704929_0" function="internal">
        <lane id=":10119704929_0_0" index="0" disallow="pedestrian tram rail_urban rail rail_electric rail_fast ship" speed="6.59" length="9.19" shape="2446.11,1780.14 2444.88,1777.94 2443.25,1776.65 2441.20,1776.27 2438.74,1776.80"/>
    </edge>
    <edge id=":10119704929_1" function="internal">
        <lane id=":10119704929_1_0" index="0" disallow="pedestrian tram rail_urban rail rail_electric rail_fast ship" speed="13.89" length="14.51" shape="2446.11,1780.14 2440.89,1766.60"/>
    </edge>
    <edge id=":10119704929_2" function="internal">
        <lane id=":10119704929_2_0" index="0" disallow="pedestrian tram rail_urban rail rail_electric rail_fast ship" speed="7.97" length="4.08" shape="2446.11,1780.14 2445.23,1776.32 2445.26,1776.16"/>
    </edge>
    <edge id=":10119704929_3" function="internal">
        <lane id=":10119704929_3_0" index="0" disallow="pedestrian tram rail_urban rail rail_electric rail_fast ship" speed="3.65" length="1.44" shape="2446.11,1780.14 2446.42,1778.73"/>
    </edge>
    <edge id=":10119704929_16" function="internal">
        <lane id=":10119704929_16_0" index="0" disallow="pedestrian tram rail_urban rail rail_electric rail_fast ship" speed="7.97" length="10.18" shape="2445.26,1776.16 2445.80,1773.16 2447.81,1770.65 2451.26,1768.80"/>
    </edge>
    <edge id=":10119704929_17" function="internal">
        <lane id=":10119704929_17_0" index="0" disallow="pedestrian tram rail_urban rail rail_electric rail_fast ship" speed="3.65" length="3.23" shape="2446.42,1778.73 2447.03,1778.07 2447.92,1778.16 2449.09,1778.99"/>
    </edge>
    <edge id=":10119704929_4" function="internal">
        <lane id=":10119704929_4_0" index="0" disallow="pedestrian tram rail_urban rail rail_electric rail_fast ship" speed="6.47" length="9.03" shape="2452.36,1771.81 2450.17,1772.98 2448.90,1774.57 2448.54,1776.57 2449.09,1778.99"/>
    </edge>
    <edge id=":10119704929_5" function="internal">
        <lane id=":10119704929_5_0" index="0" disallow="pedestrian tram rail_urban rail rail_electric rail_fast ship" speed="13.89" length="14.50" shape="2452.36,1771.81 2438.74,1776.80"/>
    </edge>
    <edge id=":10119704929_6" function="internal">
        <lane id=":10119704929_6_0" index="0" disallow="pedestrian tram rail_urban rail rail_electric rail_fast ship" speed="8.08" length="14.30" shape="2452.36,1771.81 2448.53,1772.62 2445.34,1772.02 2442.80,1770.01 2440.89,1766.60"/>
    </edge>
    <edge id=":10119704929_7" function="internal">
        <lane id=":10119704929_7_0" index="0" disallow="pedestrian tram rail_urban rail rail_electric rail_fast ship" speed="3.65" length="4.67" shape="2452.36,1771.81 2450.96,1771.47 2450.31,1770.85 2450.41,1769.96 2451.26,1768.80"/>
    </edge>
    <edge id=":10119704929_8" function="internal">
        <lane id=":10119704929_8_0" index="0" disallow="pedestrian tram rail_urban rail rail_electric rail_fast ship" speed="6.61" length="9.21" shape="2443.88,1765.45 2445.10,1767.65 2446.74,1768.94 2448.80,1769.32 2451.26,1768.80"/>
    </edge>
    <edge id=":10119704929_9" function="internal">
        <lane id=":10119704929_9_0" index="0" disallow="pedestrian tram rail_urban rail rail_electric rail_fast ship" speed="13.89" length="14.51" shape="2443.88,1765.45 2449.09,1778.99"/>
    </edge>
    <edge id=":10119704929_10" function="internal">
        <lane id=":10119704929_10_0" index="0" disallow="pedestrian tram rail_urban rail rail_electric rail_fast ship" speed="7.98" length="4.08" shape="2443.88,1765.45 2444.75,1769.27 2444.72,1769.43"/>
    </edge>
    <edge id=":10119704929_11" function="internal">
        <lane id=":10119704929_11_0" index="0" disallow="pedestrian tram rail_urban rail rail_electric rail_fast ship" speed="3.65" length="1.44" shape="2443.88,1765.45 2443.56,1766.86"/>
    </edge>
    <edge id=":10119704929_18" function="internal">
        <lane id=":10119704929_18_0" index="0" disallow="pedestrian tram rail_urban rail rail_electric rail_fast ship" speed="7.98" length="10.17" shape="2444.72,1769.43 2444.19,1772.43 2442.19,1774.94 2438.74,1776.80"/>
    </edge>
    <edge id=":10119704929_19" function="internal">
        <lane id=":10119704929_19_0" index="0" disallow="pedestrian tram rail_urban rail rail_electric rail_fast ship" speed="3.65" length="3.23" shape="2443.56,1766.86 2442.96,1767.52 2442.07,1767.43 2440.89,1766.60"/>
    </edge>
    <edge id=":10119704929_12" function="internal">
        <lane id=":10119704929_12_0" index="0" disallow="pedestrian tram rail_urban rail rail_electric rail_fast ship" speed="6.48" length="9.03" shape="2437.64,1773.80 2439.82,1772.62 2441.09,1771.02 2441.45,1769.02 2440.89,1766.60"/>
    </edge>
    <edge id=":10119704929_13" function="internal">
        <lane id=":10119704929_13_0" index="0" disallow="pedestrian tram rail_urban rail rail_electric rail_fast ship" speed="13.89" length="14.51" shape="2437.64,1773.80 2451.26,1768.80"/>
    </edge>
    <edge id=":10119704929_14" function="internal">
        <lane id=":10119704929_14_0" index="0" disallow="pedestrian tram rail_urban rail rail_electric rail_fast ship" speed="8.07" length="14.30" shape="2437.64,1773.80 2441.46,1772.98 2444.64,1773.57 2447.19,1775.57 2449.09,1778.99"/>
    </edge>
    <edge id=":10119704929_15" function="internal">
        <lane id=":10119704929_15_0" index="0" disallow="pedestrian tram rail_urban rail rail_electric rail_fast ship" speed="3.65" length="4.67" shape="2437.64,1773.80 2439.04,1774.13 2439.69,1774.74 2439.59,1775.63 2438.74,1776.80"/>
    </edge>
    <edge id=":10119704933_0" function="internal">
        <lane id=":10119704933_0_0" index="0" disallow="pedestrian tram rail_urban rail rail_electric rail_fast ship" speed="13.89" length="14.23" shape="2494.43,1881.19 2481.16,1886.35"/>
    </edge>
    <edge id=":10119704933_1" function="internal">
        <lane id=":10119704933_1_0" index="0" disallow="pedestrian tram rail_urban rail rail_electric rail_fast ship" speed="8.00" length="3.97" shape="2494.43,1881.19 2490.66,1882.03 2490.55,1882.01"/>
    </edge>
    <edge id=":10119704933_2" function="internal">
        <lane id=":10119704933_2_0" index="0" disallow="pedestrian tram rail_urban rail rail_electric rail_fast ship" speed="3.65" length="1.44" shape="2494.43,1881.19 2493.02,1880.86"/>
    </edge>
    <edge id=":10119704933_9" function="internal">
        <lane id=":10119704933_9_0" index="0" disallow="pedestrian tram rail_urban rail rail_electric rail_fast ship" speed="8.00" length="10.14" shape="2490.55,1882.01 2487.52,1881.46 2485.00,1879.49 2483.12,1876.12"/>
    </edge>
    <edge id=":10119704933_10" function="internal">
        <lane id=":10119704933_10_0" index="0" disallow="pedestrian tram rail_urban rail rail_electric rail_fast ship" speed="3.65" length="3.23" shape="2493.02,1880.86 2492.37,1880.26 2492.46,1879.37 2493.30,1878.20"/>
    </edge>
    <edge id=":10119704933_3" function="internal">
        <lane id=":10119704933_3_0" index="0" disallow="pedestrian tram rail_urban rail rail_electric rail_fast ship" speed="6.51" length="8.98" shape="2486.10,1874.97 2487.30,1877.11 2488.90,1878.37 2490.90,1878.73 2493.30,1878.20"/>
    </edge>
    <edge id=":10119704933_4" function="internal">
        <lane id=":10119704933_4_0" index="0" disallow="pedestrian tram rail_urban rail rail_electric rail_fast ship" speed="8.02" length="14.10" shape="2486.10,1874.97 2486.97,1878.73 2486.44,1881.88 2484.50,1884.42 2481.16,1886.35"/>
    </edge>
    <edge id=":10119704933_5" function="internal">
        <lane id=":10119704933_5_0" index="0" disallow="pedestrian tram rail_urban rail rail_electric rail_fast ship" speed="3.65" length="4.67" shape="2486.10,1874.97 2485.79,1876.38 2485.19,1877.04 2484.30,1876.95 2483.12,1876.12"/>
    </edge>
    <edge id=":10119704933_6" function="internal">
        <lane id=":10119704933_6_0" index="0" disallow="pedestrian tram rail_urban rail rail_electric rail_fast ship" speed="6.53" length="8.99" shape="2479.97,1883.38 2482.10,1882.15 2483.33,1880.53 2483.67,1878.52 2483.12,1876.12"/>
    </edge>
    <edge id=":10119704933_7" function="internal">
        <lane id=":10119704933_7_0" index="0" disallow="pedestrian tram rail_urban rail rail_electric rail_fast ship" speed="13.89" length="14.30" shape="2479.97,1883.38 2493.30,1878.20"/>
    </edge>
    <edge id=":10119704933_8" function="internal">
        <lane id=":10119704933_8_0" index="0" disallow="pedestrian tram rail_urban rail rail_electric rail_fast ship" speed="3.65" length="1.44" shape="2479.97,1883.38 2481.38,1883.67"/>
    </edge>
    <edge id=":10119704933_11" function="internal">
        <lane id=":10119704933_11_0" index="0" disallow="pedestrian tram rail_urban rail rail_electric rail_fast ship" speed="3.65" length="3.23" shape="2481.38,1883.67 2482.05,1884.27 2481.98,1885.16 2481.16,1886.35"/>
    </edge>
    <edge id=":10119704949_0" function="internal">
        <lane id=":10119704949_0_0" index="0" disallow="pedestrian tram rail_urban rail rail_electric rail_fast ship" speed="6.46" length="9.03" shape="2547.84,1743.00 2546.72,1740.79 2545.16,1739.48 2543.17,1739.08 2540.74,1739.59"/>
    </edge>
    <edge id=":10119704949_1" function="internal">
        <lane id=":10119704949_1_0" index="0" disallow="pedestrian tram rail_urban rail rail_electric rail_fast ship" speed="13.89" length="14.40" shape="2547.84,1743.00 2543.21,1729.36"/>
    </edge>
    <edge id=":10119704949_2" function="internal">
        <lane id=":10119704949_2_0" index="0" disallow="pedestrian tram rail_urban rail rail_electric rail_fast ship" speed="3.65" length="1.44" shape="2547.84,1743.00 2548.22,1741.61"/>
    </edge>
    <edge id=":10119704949_9" function="internal">
        <lane id=":10119704949_9_0" index="0" disallow="pedestrian tram rail_urban rail rail_electric rail_fast ship" speed="3.65" length="3.23" shape="2548.22,1741.61 2548.84,1740.97 2549.73,1741.09 2550.87,1741.97"/>
    </edge>
    <edge id=":10119704949_3" function="internal">
        <lane id=":10119704949_3_0" index="0" disallow="pedestrian tram rail_urban rail rail_electric rail_fast ship" speed="13.89" length="14.40" shape="2546.24,1728.33 2550.87,1741.97"/>
    </edge>
    <edge id=":10119704949_4" function="internal">
        <lane id=":10119704949_4_0" index="0" disallow="pedestrian tram rail_urban rail rail_electric rail_fast ship" speed="8.07" length="4.03" shape="2546.24,1728.33 2546.95,1732.13 2546.91,1732.30"/>
    </edge>
    <edge id=":10119704949_5" function="internal">
        <lane id=":10119704949_5_0" index="0" disallow="pedestrian tram rail_urban rail rail_electric rail_fast ship" speed="3.65" length="1.44" shape="2546.24,1728.33 2545.87,1729.73"/>
    </edge>
    <edge id=":10119704949_10" function="internal">
        <lane id=":10119704949_10_0" index="0" disallow="pedestrian tram rail_urban rail rail_electric rail_fast ship" speed="8.07" length="10.19" shape="2546.91,1732.30 2546.26,1735.27 2544.19,1737.75 2540.74,1739.59"/>
    </edge>
    <edge id=":10119704949_11" function="internal">
        <lane id=":10119704949_11_0" index="0" disallow="pedestrian tram rail_urban rail rail_electric rail_fast ship" speed="3.65" length="3.23" shape="2545.87,1729.73 2545.24,1730.36 2544.35,1730.24 2543.21,1729.36"/>
    </edge>
    <edge id=":10119704949_6" function="internal">
        <lane id=":10119704949_6_0" index="0" disallow="pedestrian tram rail_urban rail rail_electric rail_fast ship" speed="6.59" length="9.14" shape="2539.64,1736.59 2541.87,1735.40 2543.21,1733.80 2543.66,1731.79 2543.21,1729.36"/>
    </edge>
    <edge id=":10119704949_7" function="internal">
        <lane id=":10119704949_7_0" index="0" disallow="pedestrian tram rail_urban rail rail_electric rail_fast ship" speed="7.96" length="14.28" shape="2539.64,1736.59 2543.48,1735.78 2546.63,1736.41 2549.10,1738.47 2550.87,1741.97"/>
    </edge>
    <edge id=":10119704949_8" function="internal">
        <lane id=":10119704949_8_0" index="0" disallow="pedestrian tram rail_urban rail rail_electric rail_fast ship" speed="3.65" length="4.67" shape="2539.64,1736.59 2541.04,1736.93 2541.69,1737.54 2541.59,1738.43 2540.74,1739.59"/>
    </edge>
    <edge id=":10119704950_0" function="internal">
        <lane id=":10119704950_0_0" index="0" disallow="pedestrian tram rail_urban rail rail_electric rail_fast ship" speed="6.97" length="9.63" shape="2571.99,1803.28 2570.60,1801.27 2568.77,1800.13 2566.51,1799.85 2563.83,1800.43"/>
    </edge>
    <edge id=":10119704950_1" function="internal">
        <lane id=":10119704950_1_0" index="0" disallow="pedestrian tram rail_urban rail rail_electric rail_fast ship" speed="13.89" length="14.44" shape="2571.99,1803.28 2565.71,1790.28"/>
    </edge>
    <edge id=":10119704950_2" function="internal">
        <lane id=":10119704950_2_0" index="0" disallow="pedestrian tram rail_urban rail rail_electric rail_fast ship" speed="3.65" length="1.44" shape="2571.99,1803.28 2572.19,1801.86"/>
    </edge>
    <edge id=":10119704950_9" function="internal">
        <lane id=":10119704950_9_0" index="0" disallow="pedestrian tram rail_urban rail rail_electric rail_fast ship" speed="3.65" length="3.23" shape="2572.19,1801.86 2572.74,1801.15 2573.63,1801.16 2574.87,1801.89"/>
    </edge>
    <edge id=":10119704950_3" function="internal">
        <lane id=":10119704950_3_0" index="0" disallow="pedestrian tram rail_urban rail rail_electric rail_fast ship" speed="13.89" length="14.44" shape="2568.59,1788.89 2574.87,1801.89"/>
    </edge>
    <edge id=":10119704950_4" function="internal">
        <lane id=":10119704950_4_0" index="0" disallow="pedestrian tram rail_urban rail rail_electric rail_fast ship" speed="7.81" length="4.08" shape="2568.59,1788.89 2569.82,1792.77"/>
    </edge>
    <edge id=":10119704950_5" function="internal">
        <lane id=":10119704950_5_0" index="0" disallow="pedestrian tram rail_urban rail rail_electric rail_fast ship" speed="3.65" length="1.44" shape="2568.59,1788.89 2568.39,1790.32"/>
    </edge>
    <edge id=":10119704950_10" function="internal">
        <lane id=":10119704950_10_0" index="0" disallow="pedestrian tram rail_urban rail rail_electric rail_fast ship" speed="7.81" length="10.56" shape="2569.82,1792.77 2569.44,1795.99 2567.44,1798.55 2563.83,1800.43"/>
    </edge>
    <edge id=":10119704950_11" function="internal">
        <lane id=":10119704950_11_0" index="0" disallow="pedestrian tram rail_urban rail rail_electric rail_fast ship" speed="3.65" length="3.23" shape="2568.39,1790.32 2567.85,1791.02 2566.95,1791.01 2565.71,1790.28"/>
    </edge>
    <edge id=":10119704950_6" function="internal">
        <lane id=":10119704950_6_0" index="0" disallow="pedestrian tram rail_urban rail rail_electric rail_fast ship" speed="6.28" length="9.04" shape="2562.77,1797.41 2565.00,1796.25 2566.23,1794.67 2566.47,1792.68 2565.71,1790.28"/>
    </edge>
    <edge id=":10119704950_7" function="internal">
        <lane id=":10119704950_7_0" index="0" disallow="pedestrian tram rail_urban rail rail_electric rail_fast ship" speed="8.40" length="14.38" shape="2562.77,1797.41 2566.71,1796.57 2570.04,1797.04 2572.76,1798.81 2574.87,1801.89"/>
    </edge>
    <edge id=":10119704950_8" function="internal">
        <lane id=":10119704950_8_0" index="0" disallow="pedestrian tram rail_urban rail rail_electric rail_fast ship" speed="3.65" length="4.67" shape="2562.77,1797.41 2564.16,1797.77 2564.80,1798.39 2564.69,1799.28 2563.83,1800.43"/>
    </edge>
    <edge id=":10119704951_0" function="internal">
        <lane id=":10119704951_0_0" index="0" disallow="pedestrian tram rail_urban rail rail_electric rail_fast ship" speed="6.60" length="9.22" shape="2469.10,1839.77 2467.87,1837.55 2466.23,1836.25 2464.18,1835.87 2461.73,1836.39"/>
    </edge>
    <edge id=":10119704951_1" function="internal">
        <lane id=":10119704951_1_0" index="0" disallow="pedestrian tram rail_urban rail rail_electric rail_fast ship" speed="13.89" length="14.54" shape="2469.10,1839.77 2463.87,1826.19"/>
    </edge>
    <edge id=":10119704951_2" function="internal">
        <lane id=":10119704951_2_0" index="0" disallow="pedestrian tram rail_urban rail rail_electric rail_fast ship" speed="7.95" length="4.09" shape="2469.10,1839.77 2468.22,1835.93 2468.25,1835.78"/>
    </edge>
    <edge id=":10119704951_3" function="internal">
        <lane id=":10119704951_3_0" index="0" disallow="pedestrian tram rail_urban rail rail_electric rail_fast ship" speed="3.65" length="1.44" shape="2469.10,1839.77 2469.42,1838.36"/>
    </edge>
    <edge id=":10119704951_16" function="internal">
        <lane id=":10119704951_16_0" index="0" disallow="pedestrian tram rail_urban rail rail_electric rail_fast ship" speed="7.95" length="10.22" shape="2468.25,1835.78 2468.80,1832.76 2470.83,1830.27 2474.33,1828.45"/>
    </edge>
    <edge id=":10119704951_17" function="internal">
        <lane id=":10119704951_17_0" index="0" disallow="pedestrian tram rail_urban rail rail_electric rail_fast ship" speed="3.65" length="3.23" shape="2469.42,1838.36 2470.02,1837.70 2470.91,1837.78 2472.09,1838.61"/>
    </edge>
    <edge id=":10119704951_4" function="internal">
        <lane id=":10119704951_4_0" index="0" disallow="pedestrian tram rail_urban rail rail_electric rail_fast ship" speed="6.44" length="9.03" shape="2475.39,1831.47 2473.18,1832.62 2471.90,1834.19 2471.53,1836.19 2472.09,1838.61"/>
    </edge>
    <edge id=":10119704951_5" function="internal">
        <lane id=":10119704951_5_0" index="0" disallow="pedestrian tram rail_urban rail rail_electric rail_fast ship" speed="13.89" length="14.52" shape="2475.39,1831.47 2461.73,1836.39"/>
    </edge>
    <edge id=":10119704951_6" function="internal">
        <lane id=":10119704951_6_0" index="0" disallow="pedestrian tram rail_urban rail rail_electric rail_fast ship" speed="8.13" length="14.35" shape="2475.39,1831.47 2471.54,1832.24 2468.33,1831.62 2465.78,1829.60 2463.87,1826.19"/>
    </edge>
    <edge id=":10119704951_7" function="internal">
        <lane id=":10119704951_7_0" index="0" disallow="pedestrian tram rail_urban rail rail_electric rail_fast ship" speed="3.65" length="4.67" shape="2475.39,1831.47 2473.99,1831.12 2473.35,1830.49 2473.46,1829.61 2474.33,1828.45"/>
    </edge>
    <edge id=":10119704951_8" function="internal">
        <lane id=":10119704951_8_0" index="0" disallow="pedestrian tram rail_urban rail rail_electric rail_fast ship" speed="6.66" length="9.30" shape="2466.86,1825.04 2468.09,1827.25 2469.75,1828.55 2471.83,1828.95 2474.33,1828.45"/>
    </edge>
    <edge id=":10119704951_9" function="internal">
        <lane id=":10119704951_9_0" index="0" disallow="pedestrian tram rail_urban rail rail_electric rail_fast ship" speed="13.89" length="14.55" shape="2466.86,1825.04 2472.09,1838.61"/>
    </edge>
    <edge id=":10119704951_10" function="internal">
        <lane id=":10119704951_10_0" index="0" disallow="pedestrian tram rail_urban rail rail_electric rail_fast ship" speed="7.98" length="4.08" shape="2466.86,1825.04 2467.73,1828.86 2467.70,1829.02"/>
    </edge>
    <edge id=":10119704951_11" function="internal">
        <lane id=":10119704951_11_0" index="0" disallow="pedestrian tram rail_urban rail rail_electric rail_fast ship" speed="3.65" length="1.44" shape="2466.86,1825.04 2466.54,1826.45"/>
    </edge>
    <edge id=":10119704951_18" function="internal">
        <lane id=":10119704951_18_0" index="0" disallow="pedestrian tram rail_urban rail rail_electric rail_fast ship" speed="7.98" length="10.17" shape="2467.70,1829.02 2467.17,1832.02 2465.17,1834.53 2461.73,1836.39"/>
    </edge>
    <edge id=":10119704951_19" function="internal">
        <lane id=":10119704951_19_0" index="0" disallow="pedestrian tram rail_urban rail rail_electric rail_fast ship" speed="3.65" length="3.23" shape="2466.54,1826.45 2465.94,1827.11 2465.05,1827.03 2463.87,1826.19"/>
    </edge>
    <edge id=":10119704951_12" function="internal">
        <lane id=":10119704951_12_0" index="0" disallow="pedestrian tram rail_urban rail rail_electric rail_fast ship" speed="6.48" length="9.03" shape="2460.62,1833.39 2462.80,1832.21 2464.07,1830.62 2464.43,1828.61 2463.87,1826.19"/>
    </edge>
    <edge id=":10119704951_13" function="internal">
        <lane id=":10119704951_13_0" index="0" disallow="pedestrian tram rail_urban rail rail_electric rail_fast ship" speed="13.89" length="14.57" shape="2460.62,1833.39 2474.33,1828.45"/>
    </edge>
    <edge id=":10119704951_14" function="internal">
        <lane id=":10119704951_14_0" index="0" disallow="pedestrian tram rail_urban rail rail_electric rail_fast ship" speed="8.08" length="14.33" shape="2460.62,1833.39 2464.44,1832.57 2467.62,1833.17 2470.17,1835.18 2472.09,1838.61"/>
    </edge>
    <edge id=":10119704951_15" function="internal">
        <lane id=":10119704951_15_0" index="0" disallow="pedestrian tram rail_urban rail rail_electric rail_fast ship" speed="3.65" length="4.67" shape="2460.62,1833.39 2462.02,1833.72 2462.67,1834.34 2462.58,1835.22 2461.73,1836.39"/>
    </edge>
    <edge id=":10119704963_0" function="internal">
        <lane id=":10119704963_0_0" index="0" disallow="pedestrian tram rail_urban rail rail_electric rail_fast ship" speed="6.20" length="9.05" shape="1826.25,920.65 1824.86,918.53 1823.17,917.49 1821.18,917.51 1818.89,918.61"/>
    </edge>
    <edge id=":10119704963_1" function="internal">
        <lane id=":10119704963_1_0" index="0" disallow="pedestrian tram rail_urban rail rail_electric rail_fast ship" speed="8.54" length="14.47" shape="1826.25,920.65 1824.98,916.76 1825.05,913.34 1826.44,910.38 1829.16,907.90"/>
    </edge>
    <edge id=":10119704963_2" function="internal">
        <lane id=":10119704963_2_0" index="0" disallow="pedestrian tram rail_urban rail rail_electric rail_fast ship" speed="7.15" length="9.85" shape="1830.93,910.56 1829.14,912.22 1828.25,914.23 1828.25,916.59 1829.15,919.30"/>
    </edge>
    <edge id=":10119704963_3" function="internal">
        <lane id=":10119704963_3_0" index="0" disallow="pedestrian tram rail_urban rail rail_electric rail_fast ship" speed="13.89" length="14.48" shape="1830.93,910.56 1818.89,918.61"/>
    </edge>
    <edge id=":10119704963_4" function="internal">
        <lane id=":10119704963_4_0" index="0" disallow="pedestrian tram rail_urban rail rail_electric rail_fast ship" speed="13.89" length="14.50" shape="1817.11,915.96 1829.16,907.90"/>
    </edge>
    <edge id=":10119704963_5" function="internal">
        <lane id=":10119704963_5_0" index="0" disallow="pedestrian tram rail_urban rail rail_electric rail_fast ship" speed="7.75" length="4.15" shape="1817.11,915.96 1820.85,914.16"/>
    </edge>
    <edge id=":10119704963_6" function="internal">
        <lane id=":10119704963_6_0" index="0" disallow="pedestrian tram rail_urban rail rail_electric rail_fast ship" speed="7.75" length="10.66" shape="1820.85,914.16 1824.10,914.11 1826.87,915.83 1829.15,919.30"/>
    </edge>
    <edge id=":10119705062_0" function="internal">