<?xml version="1.0" encoding="UTF-8"?>

<!-- generated on 2026-06-19 06:21:12 by Eclipse SUMO netedit-CBSGM Version 3984794750
<configuration xmlns:xsi="http://www.w3.org/2001/XMLSchema-instance" xsi:noNamespaceSchemaLocation="http://sumo.dlr.de/xsd/netedit-CBSGMConfiguration.xsd">

    <input>
        <sumocfg-file value="C:\Users\omer\Desktop\Masaustum\Projelerim\3.sinif_1.donem+2.donem_PROJE-1\SUMO-Netedit\Kirikkale_Yenisehir_Proje-1\Yenisehir_Proje-1-2.sumocfg"/>
        <sumo-net-file value="C:\Users\omer\Desktop\Masaustum\Projelerim\3.sinif_1.donem+2.donem_PROJE-1\SUMO-Netedit\Kirikkale_Yenisehir_Proje-1\Yenisehir_Proje-1-2.net.xml"/>
    </input>

    <output>
        <output.street-names value="true"/>
    </output>

    <processing>
        <geometry.min-radius.fix.railways value="false"/>
        <geometry.max-grade.fix value="false"/>
        <offset.disable-normalization value="true"/>
        <lefthand value="0"/>
    </processing>

    <junctions>
        <no-internal-links value="false"/>
        <no-turnarounds value="true"/>
        <junctions.corner-detail value="5"/>
        <junctions.limit-turn-speed value="5.50"/>
        <rectangular-lane-cut value="0"/>
    </junctions>

    <pedestrian>
        <walkingareas value="1"/>
    </pedestrian>

</configuration>
-->

<connections version="1.16" xmlns:xsi="http://www.w3.org/2001/XMLSchema-instance" xsi:noNamespaceSchemaLocation="http://sumo.dlr.de/xsd/connections_file.xsd">
    <connection from="-1105900478" to="-528941529#4" fromLane="0" toLane="0"/>
    <connection from="-1105900478" to="-701604657#7" fromLane="0" toLane="0"/>
    <connection from="-1105900478" to="528941529#5" fromLane="0" toLane="0"/>
    <connection from="-1105900478" to="1105900478" fromLane="0" toLane="0"/>

    <connection from="-1105900479#0" to="-528941547#4" fromLane="0" toLane="0"/>
    <connection from="-1105900479#0" to="-1106301518#1" fromLane="0" toLane="0"/>
    <connection from="-1105900479#0" to="528941547#5" fromLane="0" toLane="0"/>
    <connection from="-1105900479#0" to="1105900479#0" fromLane="0" toLane="0"/>

    <connection from="-1105900479#1" to="-1105900479#0" fromLane="0" toLane="0"/>
    <connection from="-1105900479#1" to="-E20" fromLane="0" toLane="0"/>

    <connection from="-1105900479#2" to="-E21" fromLane="0" toLane="0"/>
    <connection from="-1105900479#2" to="-1105900479#1" fromLane="0" toLane="0"/>

    <connection from="-1105900479#3" to="-1105900479#2" fromLane="0" toLane="0"/>
    <connection from="-1105900479#3" to="E22" fromLane="0" toLane="0"/>

    <connection from="-1105900480#0" to="-528941546#2" fromLane="0" toLane="0"/>
    <connection from="-1105900480#0" to="528941546#3" fromLane="0" toLane="0"/>
    <connection from="-1105900480#0" to="1105900480#0" fromLane="0" toLane="0"/>

    <connection from="-1105900480#1" to="-1105900479#3" fromLane="0" toLane="0"/>
    <connection from="-1105900480#1" to="-1105900480#0" fromLane="0" toLane="0"/>
    <connection from="-1105900480#1" to="-1105900484" fromLane="0" toLane="0"/>
    <connection from="-1105900480#1" to="1105900480#1" fromLane="0" toLane="0"/>

    <connection from="-1105900480#2" to="1106301514#0" fromLane="0" toLane="0"/>
    <connection from="-1105900480#2" to="-1105900480#1" fromLane="0" toLane="0"/>
    <connection from="-1105900480#2" to="-1105900485" fromLane="0" toLane="0"/>
    <connection from="-1105900480#2" to="1105900480#2" fromLane="0" toLane="0"/>

    <connection from="-1105900484" to="-903732622#5" fromLane="0" toLane="0"/>
    <connection from="-1105900484" to="903732622#6" fromLane="0" toLane="0"/>
    <connection from="-1105900484" to="1105900484" fromLane="0" toLane="0"/>

    <connection from="-1105900485" to="-903732622#6" fromLane="0" toLane="0"/>
    <connection from="-1105900485" to="903732622#7" fromLane="0" toLane="0"/>
    <connection from="-1105900485" to="1105900485" fromLane="0" toLane="0"/>

    <connection from="-1105900487" to="-528941500#3" fromLane="0" toLane="0"/>
    <connection from="-1105900487" to="701604654#0" fromLane="0" toLane="0"/>
    <connection from="-1105900487" to="1105900487" fromLane="0" toLane="0"/>

    <connection from="-1106301514#0" to="-1105900480#1" fromLane="0" toLane="0"/>
    <connection from="-1106301514#0" to="-1105900485" fromLane="0" toLane="0"/>
    <connection from="-1106301514#0" to="1105900480#2" fromLane="0" toLane="0"/>
    <connection from="-1106301514#0" to="1106301514#0" fromLane="0" toLane="0"/>

    <connection from="-1106301514#1" to="E21" fromLane="0" toLane="0"/>
    <connection from="-1106301514#1" to="-1106301514#0" fromLane="0" toLane="0"/>
    <connection from="-1106301514#1" to="-E23" fromLane="0" toLane="0"/>

    <connection from="-1106301515#0" to="-1106301516" fromLane="0" toLane="0"/>
    <connection from="-1106301515#0" to="528941547#2" fromLane="0" toLane="0"/>
    <connection from="-1106301515#0" to="1106301515#0" fromLane="0" toLane="0"/>

    <connection from="-1106301515#1" to="-1106301515#0" fromLane="0" toLane="0"/>
    <connection from="-1106301515#1" to="E23" fromLane="0" toLane="0"/>

    <connection from="-1106301515#2" to="-1106301515#1" fromLane="0" toLane="0"/>
    <connection from="-1106301515#2" to="-1105900480#2" fromLane="0" toLane="0"/>
    <connection from="-1106301515#2" to="1106301515#2" fromLane="0" toLane="0"/>

    <connection from="-1106301516" to="-E26" fromLane="0" toLane="0"/>
    <connection from="-1106301516" to="1106301516" fromLane="0" toLane="0"/>

    <connection from="-1106301518#0" to="1106301519#2" fromLane="0" toLane="0"/>
    <connection from="-1106301518#0" to="-E25" fromLane="0" toLane="0"/>
    <connection from="-1106301518#0" to="E28" fromLane="0" toLane="0"/>
    <connection from="-1106301518#0" to="1106301518#0" fromLane="0" toLane="0"/>

    <connection from="-1106301518#1" to="-1106301518#0" fromLane="0" toLane="0"/>
    <connection from="-1106301518#1" to="-1105900478" fromLane="0" toLane="0"/>
    <connection from="-1106301518#1" to="1106301518#1" fromLane="0" toLane="0"/>

    <connection from="-1106301519#2" to="-E25" fromLane="0" toLane="0"/>
    <connection from="-1106301519#2" to="E28" fromLane="0" toLane="0"/>
    <connection from="-1106301519#2" to="1106301518#0" fromLane="0" toLane="0"/>
    <connection from="-1106301519#2" to="1106301519#2" fromLane="0" toLane="0"/>

    <connection from="-1106301520#2" to="-1106301524#0" fromLane="0" toLane="0"/>
    <connection from="-1106301520#2" to="E24" fromLane="0" toLane="0"/>
    <connection from="-1106301520#2" to="1106301520#2" fromLane="0" toLane="0"/>

    <connection from="-1106301522#0" to="-97087715#2" fromLane="0" toLane="0"/>

    <connection from="-1106301524#0" to="-1106301525#0" fromLane="0" toLane="0"/>
    <connection from="-1106301524#0" to="E27" fromLane="0" toLane="0"/>
    <connection from="-1106301524#0" to="E25" fromLane="0" toLane="0"/>
    <connection from="-1106301524#0" to="1106301524#0" fromLane="0" toLane="0"/>

    <connection from="-1106301525#0" to="97087715#2" fromLane="0" toLane="0"/>
    <connection from="-1106301525#0" to="-97087715#1" fromLane="0" toLane="0"/>
    <connection from="-1106301525#0" to="1106301525#0" fromLane="0" toLane="0"/>

    <connection from="-1106301530#0" to="-528941547#9" fromLane="0" toLane="0"/>
    <connection from="-1106301530#0" to="-528941512#2" fromLane="0" toLane="0"/>
    <connection from="-1106301530#0" to="528941547#10" fromLane="0" toLane="0"/>
    <connection from="-1106301530#0" to="1106301530#0" fromLane="0" toLane="0"/>

    <connection from="-1106301530#2" to="1106301532" fromLane="0" toLane="0"/>
    <connection from="-1106301530#2" to="-1106301530#0" fromLane="0" toLane="0"/>
    <connection from="-1106301530#2" to="1106301533" fromLane="0" toLane="0"/>
    <connection from="-1106301530#2" to="1106301530#2" fromLane="0" toLane="0"/>

    <connection from="-1106301530#3" to="-1106301530#2" fromLane="0" toLane="0"/>
    <connection from="-1106301530#3" to="-1106301535" fromLane="0" toLane="0"/>
    <connection from="-1106301530#3" to="1106301530#3" fromLane="0" toLane="0"/>

    <connection from="-1106301531#0" to="-528941547#8" fromLane="0" toLane="0"/>
    <connection from="-1106301531#0" to="528941547#9" fromLane="0" toLane="0"/>
    <connection from="-1106301531#0" to="1106301531#0" fromLane="0" toLane="0"/>

    <connection from="-1106301531#1" to="-1106301531#0" fromLane="0" toLane="0"/>
    <connection from="-1106301531#1" to="-1106301532" fromLane="0" toLane="0"/>
    <connection from="-1106301531#1" to="1106301531#1" fromLane="0" toLane="0"/>

    <connection from="-1106301532" to="-1106301530#0" fromLane="0" toLane="0"/>
    <connection from="-1106301532" to="1106301533" fromLane="0" toLane="0"/>
    <connection from="-1106301532" to="1106301530#2" fromLane="0" toLane="0"/>
    <connection from="-1106301532" to="1106301532" fromLane="0" toLane="0"/>

    <connection from="-1106301533" to="1106301530#2" fromLane="0" toLane="0"/>
    <connection from="-1106301533" to="1106301532" fromLane="0" toLane="0"/>
    <connection from="-1106301533" to="-1106301530#0" fromLane="0" toLane="0"/>
    <connection from="-1106301533" to="1106301533" fromLane="0" toLane="0"/>

    <connection from="-1106301534#0" to="-528941547#10" fromLane="0" toLane="0"/>
    <connection from="-1106301534#0" to="528941523#0" fromLane="0" toLane="0"/>
    <connection from="-1106301534#0" to="528941547#11" fromLane="0" toLane="0"/>
    <connection from="-1106301534#0" to="1106301534#0" fromLane="0" toLane="0"/>

    <connection from="-1106301534#1" to="-1106301533" fromLane="0" toLane="0"/>
    <connection from="-1106301534#1" to="-1106301534#0" fromLane="0" toLane="0"/>
    <connection from="-1106301534#1" to="1106301534#1" fromLane="0" toLane="0"/>

    <connection from="-1106301534#2" to="-1106301534#1" fromLane="0" toLane="0"/>
    <connection from="-1106301534#2" to="1106301536" fromLane="0" toLane="0"/>
    <connection from="-1106301534#2" to="1106301534#2" fromLane="0" toLane="0"/>

    <connection from="-1106301534#3" to="1106301535" fromLane="0" toLane="0"/>
    <connection from="-1106301534#3" to="-1106301534#2" fromLane="0" toLane="0"/>
    <connection from="-1106301534#3" to="1106301534#3" fromLane="0" toLane="0"/>

    <connection from="-1106301535" to="-1106301534#2" fromLane="0" toLane="0"/>
    <connection from="-1106301535" to="1106301534#3" fromLane="0" toLane="0"/>
    <connection from="-1106301535" to="1106301535" fromLane="0" toLane="0"/>

    <connection from="-1106301536" to="1106301534#2" fromLane="0" toLane="0"/>
    <connection from="-1106301536" to="-1106301534#1" fromLane="0" toLane="0"/>
    <connection from="-1106301536" to="1106301536" fromLane="0" toLane="0"/>

    <connection from="-1106301537#0" to="-528941547#12" fromLane="0" toLane="0"/>
    <connection from="-1106301537#0" to="528941547#13" fromLane="0" toLane="0"/>
    <connection from="-1106301537#0" to="1106301537#0" fromLane="0" toLane="0"/>

    <connection from="-1106301537#1" to="-1106301536" fromLane="0" toLane="0"/>
    <connection from="-1106301537#1" to="-1106301537#0" fromLane="0" toLane="0"/>
    <connection from="-1106301537#1" to="1106301537#1" fromLane="0" toLane="0"/>

    <connection from="-528941499#0" to="E6" fromLane="0" toLane="0"/>
    <connection from="-528941499#0" to="-E11" fromLane="0" toLane="0"/>
    <connection from="-528941499#0" to="528941499#0" fromLane="0" toLane="0"/>

    <connection from="-528941500#2" to="-1105900487" fromLane="0" toLane="0"/>
    <connection from="-528941500#2" to="E3" fromLane="0" toLane="0"/>
    <connection from="-528941500#2" to="528941500#2" fromLane="0" toLane="0"/>

    <connection from="-528941500#3" to="-528941500#2" fromLane="0" toLane="0"/>
    <connection from="-528941500#3" to="-E10" fromLane="0" toLane="0"/>
    <connection from="-528941500#3" to="-528941526#1" fromLane="0" toLane="0"/>
    <connection from="-528941500#3" to="528941500#3" fromLane="0" toLane="0"/>

    <connection from="-528941501#0" to="-528941524#1" fromLane="0" toLane="0"/>
    <connection from="-528941501#0" to="528941524#2" fromLane="0" toLane="0"/>
    <connection from="-528941501#0" to="528941501#0" fromLane="0" toLane="0"/>

    <connection from="-528941502#0" to="-528941511#0" fromLane="0" toLane="0"/>
    <connection from="-528941502#0" to="528941511#1" fromLane="0" toLane="0"/>
    <connection from="-528941502#0" to="528941502#0" fromLane="0" toLane="0"/>

    <connection from="-528941502#1" to="528941512#2" fromLane="0" toLane="0"/>
    <connection from="-528941502#1" to="-528941502#0" fromLane="0" toLane="0"/>
    <connection from="-528941502#1" to="-528941512#1" fromLane="0" toLane="0"/>
    <connection from="-528941502#1" to="528941502#1" fromLane="0" toLane="0"/>

    <connection from="-528941502#2" to="-528941523#0" fromLane="0" toLane="0"/>
    <connection from="-528941502#2" to="-528941502#1" fromLane="0" toLane="0"/>
    <connection from="-528941502#2" to="528941523#1" fromLane="0" toLane="0"/>
    <connection from="-528941502#2" to="528941502#2" fromLane="0" toLane="0"/>

    <connection from="-528941503" to="528941547#7" fromLane="0" toLane="0"/>
    <connection from="-528941503" to="-528941547#6" fromLane="0" toLane="0"/>
    <connection from="-528941503" to="528941503" fromLane="0" toLane="0"/>

    <connection from="-528941504#0" to="-528941515#0" fromLane="0" toLane="0"/>
    <connection from="-528941504#0" to="528941515#1" fromLane="0" toLane="0"/>
    <connection from="-528941504#0" to="PegemAkademi" fromLane="0" toLane="0"/>

    <connection from="-528941504#1" to="E13" fromLane="0" toLane="0"/>
    <connection from="-528941504#1" to="-528941504#0" fromLane="0" toLane="0"/>
    <connection from="-528941504#1" to="-528941517" fromLane="0" toLane="0"/>
    <connection from="-528941504#1" to="528941504#1" fromLane="0" toLane="0"/>

    <connection from="-528941505#0" to="528941529#4" fromLane="0" toLane="0"/>
    <connection from="-528941505#0" to="-528941529#3" fromLane="0" toLane="0"/>
    <connection from="-528941505#0" to="528941505#0" fromLane="0" toLane="0"/>

    <connection from="-528941505#1" to="-528941513#1" fromLane="0" toLane="0"/>
    <connection from="-528941505#1" to="-528941505#0" fromLane="0" toLane="0"/>
    <connection from="-528941505#1" to="528941513#2" fromLane="0" toLane="0"/>
    <connection from="-528941505#1" to="528941505#1" fromLane="0" toLane="0"/>

    <connection from="-528941507#0" to="528941530#4" fromLane="0" toLane="0"/>
    <connection from="-528941507#0" to="-528941530#3" fromLane="0" toLane="0"/>
    <connection from="-528941507#0" to="528941507#0" fromLane="0" toLane="0"/>

    <connection from="-528941507#1" to="528941508#2" fromLane="0" toLane="0"/>
    <connection from="-528941507#1" to="-528941507#0" fromLane="0" toLane="0"/>
    <connection from="-528941507#1" to="-E29" fromLane="0" toLane="0"/>
    <connection from="-528941507#1" to="528941507#1" fromLane="0" toLane="0"/>

    <connection from="-528941508#2" to="-528941507#0" fromLane="0" toLane="0"/>
    <connection from="-528941508#2" to="-E29" fromLane="0" toLane="0"/>
    <connection from="-528941508#2" to="528941507#1" fromLane="0" toLane="0"/>
    <connection from="-528941508#2" to="528941508#2" fromLane="0" toLane="0"/>

    <connection from="-528941509#0" to="-528941530#2" fromLane="0" toLane="0"/>
    <connection from="-528941509#0" to="528941530#3" fromLane="0" toLane="0"/>
    <connection from="-528941509#0" to="528941509#0" fromLane="0" toLane="0"/>

    <connection from="-528941509#1" to="528941522#4" fromLane="0" toLane="0"/>
    <connection from="-528941509#1" to="-528941509#0" fromLane="0" toLane="0"/>
    <connection from="-528941509#1" to="-528941522#3" fromLane="0" toLane="0"/>
    <connection from="-528941509#1" to="528941509#1" fromLane="0" toLane="0"/>

    <connection from="-528941510#1" to="-528941522#2" fromLane="0" toLane="0"/>
    <connection from="-528941510#1" to="BIM" fromLane="0" toLane="0"/>
    <connection from="-528941510#1" to="528941522#3" fromLane="0" toLane="0"/>
    <connection from="-528941510#1" to="528941510#1" fromLane="0" toLane="0"/>

    <connection from="-528941511#0" to="528941547#8" fromLane="0" toLane="0"/>
    <connection from="-528941511#0" to="-528941547#7" fromLane="0" toLane="0"/>
    <connection from="-528941511#0" to="528941511#0" fromLane="0" toLane="0"/>

    <connection from="-528941511#1" to="528941502#0" fromLane="0" toLane="0"/>
    <connection from="-528941511#1" to="-528941511#0" fromLane="0" toLane="0"/>
    <connection from="-528941511#1" to="528941511#1" fromLane="0" toLane="0"/>

    <connection from="-528941511#2" to="-528941525#4" fromLane="0" toLane="0"/>
    <connection from="-528941511#2" to="-528941511#1" fromLane="0" toLane="0"/>
    <connection from="-528941511#2" to="528941525#5" fromLane="0" toLane="0"/>
    <connection from="-528941511#2" to="528941511#2" fromLane="0" toLane="0"/>

    <connection from="-528941511#3" to="-701604657#5" fromLane="0" toLane="0"/>
    <connection from="-528941511#3" to="-528941511#2" fromLane="0" toLane="0"/>
    <connection from="-528941511#3" to="701604657#6" fromLane="0" toLane="0"/>
    <connection from="-528941511#3" to="528941511#3" fromLane="0" toLane="0"/>

    <connection from="-528941511#4" to="-528941508#2" fromLane="0" toLane="0"/>
    <connection from="-528941511#4" to="-528941511#3" fromLane="0" toLane="0"/>
    <connection from="-528941511#4" to="-528941505#1" fromLane="0" toLane="0"/>
    <connection from="-528941511#4" to="528941511#4" fromLane="0" toLane="0"/>

    <connection from="-528941511#5" to="-528941530#5" fromLane="0" toLane="0"/>
    <connection from="-528941511#5" to="-528941511#4" fromLane="0" toLane="0"/>
    <connection from="-528941511#5" to="528941530#6" fromLane="0" toLane="0"/>
    <connection from="-528941511#5" to="528941511#5" fromLane="0" toLane="0"/>

    <connection from="-528941511#6" to="528941522#2" fromLane="0" toLane="0"/>
    <connection from="-528941511#6" to="-528941511#5" fromLane="0" toLane="0"/>
    <connection from="-528941511#6" to="-528941522#1" fromLane="0" toLane="0"/>
    <connection from="-528941511#6" to="528941511#6" fromLane="0" toLane="0"/>

    <connection from="-528941512#0" to="701604657#5" fromLane="0" toLane="0"/>
    <connection from="-528941512#0" to="-528941507#1" fromLane="0" toLane="0"/>
    <connection from="-528941512#0" to="-E30" fromLane="0" toLane="0"/>
    <connection from="-528941512#0" to="528941512#0" fromLane="0" toLane="0"/>

    <connection from="-528941512#1" to="528941525#4" fromLane="0" toLane="0"/>
    <connection from="-528941512#1" to="-528941512#0" fromLane="0" toLane="0"/>
    <connection from="-528941512#1" to="E31" fromLane="0" toLane="0"/>
    <connection from="-528941512#1" to="528941512#1" fromLane="0" toLane="0"/>

    <connection from="-528941512#2" to="-528941502#0" fromLane="0" toLane="0"/>
    <connection from="-528941512#2" to="-528941512#1" fromLane="0" toLane="0"/>
    <connection from="-528941512#2" to="528941502#1" fromLane="0" toLane="0"/>
    <connection from="-528941512#2" to="528941512#2" fromLane="0" toLane="0"/>

    <connection from="-528941513#0" to="-528941525#5" fromLane="0" toLane="0"/>
    <connection from="-528941513#0" to="-528941503" fromLane="0" toLane="0"/>
    <connection from="-528941513#0" to="528941525#6" fromLane="0" toLane="0"/>
    <connection from="-528941513#0" to="528941513#0" fromLane="0" toLane="0"/>

    <connection from="-528941513#1" to="-701604657#6" fromLane="0" toLane="0"/>
    <connection from="-528941513#1" to="-528941513#0" fromLane="0" toLane="0"/>
    <connection from="-528941513#1" to="701604657#7" fromLane="0" toLane="0"/>
    <connection from="-528941513#1" to="528941513#1" fromLane="0" toLane="0"/>

    <connection from="-528941513#2" to="528941505#1" fromLane="0" toLane="0"/>
    <connection from="-528941513#2" to="-528941513#1" fromLane="0" toLane="0"/>
    <connection from="-528941513#2" to="-528941505#0" fromLane="0" toLane="0"/>
    <connection from="-528941513#2" to="528941513#2" fromLane="0" toLane="0"/>

    <connection from="-528941513#3" to="-528941530#6" fromLane="0" toLane="0"/>
    <connection from="-528941513#3" to="-528941513#2" fromLane="0" toLane="0"/>
    <connection from="-528941513#3" to="528941530#7" fromLane="0" toLane="0"/>
    <connection from="-528941513#3" to="528941513#3" fromLane="0" toLane="0"/>

    <connection from="-528941513#4" to="528941522#1" fromLane="0" toLane="0"/>
    <connection from="-528941513#4" to="-528941513#3" fromLane="0" toLane="0"/>
    <connection from="-528941513#4" to="-528941522#0" fromLane="0" toLane="0"/>
    <connection from="-528941513#4" to="528941513#4" fromLane="0" toLane="0"/>

    <connection from="-528941515#0" to="-528941530#0" fromLane="0" toLane="0"/>
    <connection from="-528941515#0" to="528941530#1" fromLane="0" toLane="0"/>
    <connection from="-528941515#0" to="528941515#0" fromLane="0" toLane="0"/>

    <connection from="-528941515#1" to="PegemAkademi" fromLane="0" toLane="0"/>
    <connection from="-528941515#1" to="-528941515#0" fromLane="0" toLane="0"/>
    <connection from="-528941515#1" to="528941515#1" fromLane="0" toLane="0"/>

    <connection from="-528941515#2" to="528941522#6" fromLane="0" toLane="0"/>
    <connection from="-528941515#2" to="-528941515#1" fromLane="0" toLane="0"/>
    <connection from="-528941515#2" to="-528941522#5" fromLane="0" toLane="0"/>
    <connection from="-528941515#2" to="PizzaArt" fromLane="0" toLane="0"/>

    <connection from="-528941516" to="-528941518#1" fromLane="0" toLane="0"/>
    <connection from="-528941516" to="-528941536#2" fromLane="0" toLane="0"/>
    <connection from="-528941516" to="528941517" fromLane="0" toLane="0"/>
    <connection from="-528941516" to="SeverseDoner" fromLane="0" toLane="0"/>

    <connection from="-528941517" to="SeverseDoner" fromLane="0" toLane="0"/>
    <connection from="-528941517" to="-528941518#1" fromLane="0" toLane="0"/>
    <connection from="-528941517" to="-528941536#2" fromLane="0" toLane="0"/>
    <connection from="-528941517" to="528941517" fromLane="0" toLane="0"/>

    <connection from="-528941518#1" to="-528941521#0" fromLane="0" toLane="0"/>
    <connection from="-528941518#1" to="528941521#1" fromLane="0" toLane="0"/>
    <connection from="-528941518#1" to="528941518#1" fromLane="0" toLane="0"/>

    <connection from="-528941519#0" to="528941521#2" fromLane="0" toLane="0"/>
    <connection from="-528941519#0" to="-528941521#1" fromLane="0" toLane="0"/>
    <connection from="-528941519#0" to="528941519#0" fromLane="0" toLane="0"/>

    <connection from="-528941520" to="-528941499#0" fromLane="0" toLane="0"/>
    <connection from="-528941520" to="-E19" fromLane="0" toLane="0"/>
    <connection from="-528941520" to="528941520" fromLane="0" toLane="0"/>

    <connection from="-528941521#0" to="-701604652" fromLane="0" toLane="0"/>
    <connection from="-528941521#0" to="528941521#0" fromLane="0" toLane="0"/>

    <connection from="-528941521#1" to="528941518#1" fromLane="0" toLane="0"/>
    <connection from="-528941521#1" to="-528941521#0" fromLane="0" toLane="0"/>
    <connection from="-528941521#1" to="528941521#1" fromLane="0" toLane="0"/>

    <connection from="-528941521#2" to="-528941521#1" fromLane="0" toLane="0"/>
    <connection from="-528941521#2" to="528941519#0" fromLane="0" toLane="0"/>
    <connection from="-528941521#2" to="528941521#2" fromLane="0" toLane="0"/>

    <connection from="-528941522#0" to="528941529#2" fromLane="0" toLane="0"/>
    <connection from="-528941522#0" to="-E28" fromLane="0" toLane="0"/>
    <connection from="-528941522#0" to="-528941529#1" fromLane="0" toLane="0"/>
    <connection from="-528941522#0" to="528941522#0" fromLane="0" toLane="0"/>

    <connection from="-528941522#1" to="-528941513#3" fromLane="0" toLane="0"/>
    <connection from="-528941522#1" to="-528941522#0" fromLane="0" toLane="0"/>
    <connection from="-528941522#1" to="528941513#4" fromLane="0" toLane="0"/>
    <connection from="-528941522#1" to="528941522#1" fromLane="0" toLane="0"/>

    <connection from="-528941522#2" to="-528941511#5" fromLane="0" toLane="0"/>
    <connection from="-528941522#2" to="-528941522#1" fromLane="0" toLane="0"/>
    <connection from="-528941522#2" to="528941511#6" fromLane="0" toLane="0"/>
    <connection from="-528941522#2" to="528941522#2" fromLane="0" toLane="0"/>

    <connection from="-528941522#3" to="528941510#1" fromLane="0" toLane="0"/>
    <connection from="-528941522#3" to="-528941522#2" fromLane="0" toLane="0"/>
    <connection from="-528941522#3" to="BIM" fromLane="0" toLane="0"/>
    <connection from="-528941522#3" to="528941522#3" fromLane="0" toLane="0"/>

    <connection from="-528941522#4" to="-528941509#0" fromLane="0" toLane="0"/>
    <connection from="-528941522#4" to="-528941522#3" fromLane="0" toLane="0"/>
    <connection from="-528941522#4" to="528941509#1" fromLane="0" toLane="0"/>
    <connection from="-528941522#4" to="528941522#4" fromLane="0" toLane="0"/>

    <connection from="-528941522#5" to="-528941523#5" fromLane="0" toLane="0"/>
    <connection from="-528941522#5" to="-528941522#4" fromLane="0" toLane="0"/>
    <connection from="-528941522#5" to="528941523#6" fromLane="0" toLane="0"/>
    <connection from="-528941522#5" to="528941522#5" fromLane="0" toLane="0"/>

    <connection from="-528941522#6" to="-528941515#1" fromLane="0" toLane="0"/>
    <connection from="-528941522#6" to="-528941522#5" fromLane="0" toLane="0"/>
    <connection from="-528941522#6" to="PizzaArt" fromLane="0" toLane="0"/>
    <connection from="-528941522#6" to="528941522#6" fromLane="0" toLane="0"/>

    <connection from="-528941523#0" to="528941547#11" fromLane="0" toLane="0"/>
    <connection from="-528941523#0" to="1106301534#0" fromLane="0" toLane="0"/>
    <connection from="-528941523#0" to="-528941547#10" fromLane="0" toLane="0"/>
    <connection from="-528941523#0" to="528941523#0" fromLane="0" toLane="0"/>

    <connection from="-528941523#1" to="528941502#2" fromLane="0" toLane="0"/>
    <connection from="-528941523#1" to="-528941523#0" fromLane="0" toLane="0"/>
    <connection from="-528941523#1" to="-528941502#1" fromLane="0" toLane="0"/>
    <connection from="-528941523#1" to="528941523#1" fromLane="0" toLane="0"/>

    <connection from="-528941523#2" to="-528941525#1" fromLane="0" toLane="0"/>
    <connection from="-528941523#2" to="-528941523#1" fromLane="0" toLane="0"/>
    <connection from="-528941523#2" to="-E31" fromLane="0" toLane="0"/>
    <connection from="-528941523#2" to="528941523#2" fromLane="0" toLane="0"/>

    <connection from="-528941523#3" to="-701604657#2" fromLane="0" toLane="0"/>
    <connection from="-528941523#3" to="-528941523#2" fromLane="0" toLane="0"/>
    <connection from="-528941523#3" to="E30" fromLane="0" toLane="0"/>
    <connection from="-528941523#3" to="528941523#3" fromLane="0" toLane="0"/>

    <connection from="-528941523#4" to="-528941523#3" fromLane="0" toLane="0"/>
    <connection from="-528941523#4" to="E29" fromLane="0" toLane="0"/>
    <connection from="-528941523#4" to="528941523#4" fromLane="0" toLane="0"/>

    <connection from="-528941523#5" to="-528941530#1" fromLane="0" toLane="0"/>
    <connection from="-528941523#5" to="-528941523#4" fromLane="0" toLane="0"/>
    <connection from="-528941523#5" to="528941530#2" fromLane="0" toLane="0"/>
    <connection from="-528941523#5" to="528941523#5" fromLane="0" toLane="0"/>

    <connection from="-528941523#6" to="528941522#5" fromLane="0" toLane="0"/>
    <connection from="-528941523#6" to="-528941523#5" fromLane="0" toLane="0"/>
    <connection from="-528941523#6" to="-528941522#4" fromLane="0" toLane="0"/>
    <connection from="-528941523#6" to="528941523#6" fromLane="0" toLane="0"/>

    <connection from="-528941524#0" to="528941547#12" fromLane="0" toLane="0"/>
    <connection from="-528941524#0" to="-528941547#11" fromLane="0" toLane="0"/>
    <connection from="-528941524#0" to="528941524#0" fromLane="0" toLane="0"/>

    <connection from="-528941524#1" to="-528941524#0" fromLane="0" toLane="0"/>
    <connection from="-528941524#1" to="-528941502#2" fromLane="0" toLane="0"/>
    <connection from="-528941524#1" to="528941524#1" fromLane="0" toLane="0"/>

    <connection from="-528941524#2" to="528941501#0" fromLane="0" toLane="0"/>
    <connection from="-528941524#2" to="-528941524#1" fromLane="0" toLane="0"/>
    <connection from="-528941524#2" to="528941524#2" fromLane="0" toLane="0"/>

    <connection from="-528941525#0" to="-528941527#0" fromLane="0" toLane="0"/>
    <connection from="-528941525#0" to="-701598818" fromLane="0" toLane="0"/>
    <connection from="-528941525#0" to="528941527#2" fromLane="0" toLane="0"/>
    <connection from="-528941525#0" to="528941525#0" fromLane="0" toLane="0"/>

    <connection from="-528941525#1" to="-528941528" fromLane="0" toLane="0"/>
    <connection from="-528941525#1" to="-528941525#0" fromLane="0" toLane="0"/>
    <connection from="-528941525#1" to="-528941524#2" fromLane="0" toLane="0"/>
    <connection from="-528941525#1" to="528941525#1" fromLane="0" toLane="0"/>

    <connection from="-528941525#4" to="-528941512#0" fromLane="0" toLane="0"/>
    <connection from="-528941525#4" to="E31" fromLane="0" toLane="0"/>
    <connection from="-528941525#4" to="528941512#1" fromLane="0" toLane="0"/>