<?xml version="1.0" encoding="UTF-8"?>

<!-- generated on 2026-05-29 15:15:00 by Eclipse SUMO netedit-CBSGM Version 3984794750
<configuration xmlns:xsi="http://www.w3.org/2001/XMLSchema-instance" xsi:noNamespaceSchemaLocation="http://sumo.dlr.de/xsd/netedit-CBSGMConfiguration.xsd">

    <input>
        <sumocfg-file value="C:\Users\omer\Desktop\Masaustum\Projelerim\3.sinif_1.donem+2.donem_PROJE-1\SUMO-Netedit\Kirikkale_Yenisehir_Proje-1\2\Yenisehir_Proje-1-2.sumocfg"/>
        <additional-files value="C:\Users\omer\Desktop\Masaustum\Projelerim\3.sinif_1.donem+2.donem_PROJE-1\SUMO-Netedit\Kirikkale_Yenisehir_Proje-1\2\Yenisehir_Proje-1-2-Ekler.add.xml"/>
        <route-files value="C:\Users\omer\Desktop\Masaustum\Projelerim\3.sinif_1.donem+2.donem_PROJE-1\SUMO-Netedit\Kirikkale_Yenisehir_Proje-1\2\Yenisehir_Proje-1-2-Rota.rou.xml"/>
        <sumo-net-file value="C:\Users\omer\Desktop\Masaustum\Projelerim\3.sinif_1.donem+2.donem_PROJE-1\SUMO-Netedit\Kirikkale_Yenisehir_Proje-1\Yenisehir_Proje-1-2.net.xml"/>
    </input>

    <output>
        <edgetypes-file value="C:\Users\omer\Desktop\Masaustum\Projelerim\3.sinif_1.donem+2.donem_PROJE-1\SUMO-Netedit\Kirikkale_Yenisehir_Proje-1\2\Yenisehir_Proje-1-2.typ.xml"/>
        <output.street-names value="true"/>
    </output>

    <processing>
        <geometry.min-radius.fix.railways value="false"/>
        <geometry.max-grade.fix value="false"/>
        <offset.disable-normalization value="true"/>
        <lefthand value="0"/>
    </processing>

    <junctions>
        <no-internal-links value="false"/>
        <no-turnarounds value="true"/>
        <junctions.corner-detail value="5"/>
        <junctions.limit-turn-speed value="5.50"/>
        <rectangular-lane-cut value="0"/>
    </junctions>

    <pedestrian>
        <walkingareas value="1"/>
    </pedestrian>

</configuration>
-->

<tlLogics version="1.16" xmlns:xsi="http://www.w3.org/2001/XMLSchema-instance" xsi:noNamespaceSchemaLocation="http://sumo.dlr.de/xsd/tllogic_file.xsd">
</tlLogics>
